plain_sheet_em
  PyMOL3.1          3D                             0

  0  0  0  0  0  0  0  0  0  0999 V3000
M  V30 BEGIN CTAB
M  V30 COUNTS 3080 3140 0 0 0
M  V30 BEGIN ATOM
M  V30 1 N -4.6918 9.1118 -8.0802 0
M  V30 2 N -4.6927 13.9207 -8.0828 0
M  V30 3 N -4.6806 29.2612 2.8319 0
M  V30 4 N -4.6935 23.5325 -8.0868 0
M  V30 5 N -4.6932 18.7263 -8.0851 0
M  V30 6 N -4.6936 28.3383 -8.0889 0
M  V30 7 N -4.6835 42.8074 -8.1138 0
M  V30 8 N -4.6805 19.6506 2.8367 0
M  V30 9 N -4.6891 -0.5406 -8.0639 0
M  V30 10 N 25.2699 42.7495 2.8018 0
M  V30 11 N -4.6934 33.1474 -8.0913 0
M  V30 12 N -4.6751 0.4256 2.8348 0
M  V30 13 N 25.2776 23.5325 2.7947 0
M  V30 14 N 25.2738 4.3185 2.7900 0
M  V30 15 N -4.6790 38.8809 2.8195 0
M  V30 16 N -4.6921 37.9624 -8.0966 0
M  V30 17 N 25.2771 13.9280 2.7929 0
M  V30 18 N -4.6798 10.0411 2.8383 0
M  V30 19 N -4.6897 4.2982 -8.0758 0
M  V30 20 N 25.2763 33.1371 2.7971 0
M  V30 21 C 24.0448 14.4490 2.1291 0
M  V30 22 C -3.4548 38.4496 -7.4329 0
M  V30 23 C -3.4619 0.0384 -7.4324 0
M  V30 24 C -3.4590 38.3532 2.1294 0
M  V30 25 C -3.4560 33.6484 -7.4334 0
M  V30 26 C 24.0447 24.0494 2.1290 0
M  V30 27 C -3.4589 28.7518 2.1293 0
M  V30 28 C 24.0445 4.8482 2.1291 0
M  V30 29 C -3.4579 9.5501 2.1288 0
M  V30 30 C 24.0425 43.2507 2.1279 0
M  V30 31 C -3.4586 19.1510 2.1291 0
M  V30 32 C -3.4566 28.8476 -7.4336 0
M  V30 33 C -3.4576 4.8441 -7.4340 0
M  V30 34 C -3.4575 9.6454 -7.4339 0
M  V30 35 C -3.4559 -0.0515 2.1275 0
M  V30 36 C -3.4569 24.0472 -7.4338 0
M  V30 37 C -3.4571 19.2466 -7.4338 0
M  V30 38 C -3.4573 14.4462 -7.4339 0
M  V30 39 C 24.0443 33.6498 2.1289 0
M  V30 40 C -3.4520 43.2579 -7.4299 0
M  V30 41 C 22.7927 23.4274 2.7499 0
M  V30 42 C -2.2087 23.4353 -8.0637 0
M  V30 43 C -2.2037 10.1714 2.7407 0
M  V30 44 C 22.7929 13.8270 2.7502 0
M  V30 45 C -2.2097 -0.5737 -8.0614 0
M  V30 46 C -2.2088 9.0338 -8.0638 0
M  V30 47 C -2.2087 18.6350 -8.0636 0
M  V30 48 C -2.2053 38.9756 2.7427 0
M  V30 49 C -2.2086 28.2355 -8.0636 0
M  V30 50 C -2.2088 13.8346 -8.0638 0
M  V30 51 C -2.2080 37.8358 -8.0632 0
M  V30 52 C -2.2039 19.7724 2.7403 0
M  V30 53 C 22.7925 33.0278 2.7496 0
M  V30 54 C 22.7929 4.2258 2.7504 0
M  V30 55 C -2.2044 29.3734 2.7410 0
M  V30 56 C -2.2071 42.6346 -8.0592 0
M  V30 57 C 22.7922 42.6276 2.7490 0
M  V30 58 C -2.2035 0.5702 2.7433 0
M  V30 59 C -2.2088 4.2318 -8.0639 0
M  V30 60 C -2.2085 33.0357 -8.0637 0
M  V30 61 O -2.0640 3.0161 -8.2498 0
M  V30 62 O 22.6864 22.2145 2.9589 0
M  V30 63 O -2.0926 11.3787 2.9803 0
M  V30 64 O -2.0627 31.8263 -8.2511 0
M  V30 65 O -2.0627 12.6218 -8.2501 0
M  V30 66 O 22.6862 12.6134 2.9583 0
M  V30 67 O -2.0922 1.7765 2.9767 0
M  V30 68 O -2.0625 22.2241 -8.2507 0
M  V30 69 O 22.6849 3.0109 2.9578 0
M  V30 70 O -2.0929 30.5829 2.9788 0
M  V30 71 O 22.6832 41.4173 2.9604 0
M  V30 72 O -2.0626 17.4230 -8.2503 0
M  V30 73 O 22.6857 31.8155 2.9595 0
M  V30 74 O -2.0928 20.9805 2.9805 0
M  V30 75 O -2.0631 36.6279 -8.2514 0
M  V30 76 O -2.0631 7.8198 -8.2496 0
M  V30 77 O -2.0930 40.1880 2.9734 0
M  V30 78 O -2.0626 27.0250 -8.2508 0
M  V30 79 O -2.0806 -1.7933 -8.2542 0
M  V30 80 O -2.0654 41.4312 -8.2528 0
M  V30 81 C -3.4266 9.8541 0.5981 0
M  V30 82 C 24.0099 42.9461 0.5999 0
M  V30 83 C -3.4039 23.7510 -5.9086 0
M  V30 84 C -3.4037 38.1492 -5.9086 0
M  V30 85 C -3.4128 42.9594 -5.9053 0
M  V30 86 C -3.4036 18.9515 -5.9082 0
M  V30 87 C 24.0093 4.5484 0.6001 0
M  V30 88 C -3.4263 0.2555 0.5984 0
M  V30 89 C -3.4036 28.5507 -5.9084 0
M  V30 90 C -3.4039 33.3500 -5.9088 0
M  V30 91 C -3.4258 38.6514 0.5977 0
M  V30 92 C -3.4034 9.3524 -5.9079 0
M  V30 93 C 24.0097 33.3472 0.6004 0
M  V30 94 C -3.4264 29.0527 0.5978 0
M  V30 95 C -3.4038 14.1518 -5.9083 0
M  V30 96 C -3.4266 19.4534 0.5979 0
M  V30 97 C 24.0096 23.7474 0.6004 0
M  V30 98 C -3.4169 -0.2625 -5.9030 0
M  V30 99 C -3.4035 4.5531 -5.9078 0
M  V30 100 C 24.0095 14.1477 0.6003 0
M  V30 101 C -4.6967 18.5859 -5.2761 0
M  V30 102 C -4.6969 28.1868 -5.2764 0
M  V30 103 C 25.3426 4.1986 -0.0446 0
M  V30 104 C -4.6976 32.9880 -5.2761 0
M  V30 105 C -4.7581 0.5973 -0.0354 0
M  V30 106 C -4.7207 -0.6953 -5.2682 0
M  V30 107 C 25.3428 42.6006 -0.0432 0
M  V30 108 C -4.6975 23.3869 -5.2756 0
M  V30 109 C -4.7589 29.4009 -0.0344 0
M  V30 110 C -4.6973 13.7860 -5.2754 0
M  V30 111 C -4.7589 10.1989 -0.0341 0
M  V30 112 C 25.3430 32.9999 -0.0443 0
M  V30 113 C 25.3430 13.7993 -0.0448 0
M  V30 114 C 25.3431 23.3996 -0.0447 0
M  V30 115 C -4.6971 4.1838 -5.2753 0
M  V30 116 C -4.6965 8.9848 -5.2759 0
M  V30 117 C -4.6974 37.7891 -5.2772 0
M  V30 118 C -4.7590 19.7999 -0.0340 0
M  V30 119 C -4.7583 39.0027 -0.0360 0
M  V30 120 C -4.7340 42.6763 -5.2644 0
M  V30 121 C -5.2027 7.7739 -5.3383 0
M  V30 122 C -5.2041 21.1310 -0.0461 0
M  V30 123 C -5.2025 26.9758 -5.3387 0
M  V30 124 C -5.2028 31.7770 -5.3388 0
M  V30 125 C -5.2026 17.3749 -5.3385 0
M  V30 126 C -5.2030 12.5751 -5.3382 0
M  V30 127 C -5.2031 1.9286 -0.0472 0
M  V30 128 C -5.2039 11.5301 -0.0462 0
M  V30 129 C 25.7875 22.0676 -0.0559 0
M  V30 130 C 25.7874 31.6680 -0.0556 0
M  V30 131 C 25.7872 2.8668 -0.0559 0
M  V30 132 C -5.2034 40.3338 -0.0482 0
M  V30 133 C -5.2030 22.1760 -5.3384 0
M  V30 134 C 25.7872 41.2687 -0.0546 0
M  V30 135 C -5.2023 36.5773 -5.3393 0
M  V30 136 C -5.1943 -1.9725 -5.2561 0
M  V30 137 C -5.2069 41.4158 -5.3233 0
M  V30 138 C -5.2040 30.7320 -0.0465 0
M  V30 139 C -5.2030 2.9719 -5.3374 0
M  V30 140 C 25.7874 12.4673 -0.0561 0
M  V30 141 C 26.1854 5.1953 -0.5523 0
M  V30 142 C -5.5644 29.0058 -4.6539 0
M  V30 143 C 26.1858 33.9964 -0.5523 0
M  V30 144 C -5.5639 9.8041 -4.6539 0
M  V30 145 C -5.5642 19.4050 -4.6538 0
M  V30 146 C -5.6007 38.0058 -0.5398 0
M  V30 147 C -5.5650 38.6099 -4.6555 0
M  V30 148 C -5.5647 14.6046 -4.6491 0
M  V30 149 C -5.6013 9.2026 -0.5387 0
M  V30 150 C -5.5962 43.6272 -4.7421 0
M  V30 151 C -5.6006 -0.3985 -0.5404 0
M  V30 152 C -5.5642 5.0032 -4.6496 0
M  V30 153 C -5.6015 18.8035 -0.5384 0
M  V30 154 C -5.5651 33.8063 -4.6494 0
M  V30 155 C 26.1855 43.5969 -0.5511 0
M  V30 156 C 26.1858 24.3961 -0.5526 0
M  V30 157 C -5.5649 24.2053 -4.6491 0
M  V30 158 C -5.6014 28.4043 -0.5386 0
M  V30 159 C -5.5688 0.1733 -4.6636 0
M  V30 160 C 26.1857 14.7959 -0.5526 0
M  V30 161 C 27.0489 40.9428 -0.5518 0
M  V30 162 C -6.4656 31.0587 -0.5417 0
M  V30 163 C -6.5014 12.3299 -4.8409 0
M  V30 164 C -6.5014 31.5317 -4.8413 0
M  V30 165 C -6.5009 26.7288 -4.8421 0
M  V30 166 C -6.5005 2.7258 -4.8403 0
M  V30 167 C 27.0492 31.3422 -0.5527 0
M  V30 168 C -6.4961 41.1622 -4.8349 0
M  V30 169 C 27.0491 12.1416 -0.5531 0
M  V30 170 C -6.5007 7.5269 -4.8419 0
M  V30 171 C -6.4657 11.8570 -0.5415 0
M  V30 172 C -6.5009 17.1280 -4.8419 0
M  V30 173 C 27.0492 21.7419 -0.5530 0
M  V30 174 C -6.4646 40.6604 -0.5432 0
M  V30 175 C -6.5015 21.9307 -4.8410 0
M  V30 176 C -6.4650 -2.2907 -4.7535 0
M  V30 177 C -6.4651 2.2556 -0.5427 0
M  V30 178 C -6.4658 21.4578 -0.5413 0
M  V30 179 C 27.0487 2.5411 -0.5526 0
M  V30 180 C -6.5008 36.3302 -4.8425 0
M  V30 181 C 27.4451 33.6679 -1.0593 0
M  V30 182 C -6.8643 9.5312 -1.0314 0
M  V30 183 C 27.4448 43.2685 -1.0582 0
M  V30 184 C -6.8627 4.7651 -4.1377 0
M  V30 185 C -6.8632 23.9670 -4.1371 0
M  V30 186 C -6.8659 28.7665 -4.1562 0
M  V30 187 C -6.8657 38.3694 -4.1575 0
M  V30 188 C -6.8631 33.5680 -4.1372 0
M  V30 189 C -6.8656 43.3082 -4.2262 0
M  V30 190 C -6.8657 9.5649 -4.1564 0
M  V30 191 C 27.4451 24.0676 -1.0596 0
M  V30 192 C -6.8645 19.1321 -1.0311 0
M  V30 193 C -6.8607 -0.0742 -4.1753 0
M  V30 194 C -6.8659 19.1658 -4.1562 0
M  V30 195 C -6.8639 38.3346 -1.0327 0
M  V30 196 C -6.8631 14.3663 -4.1371 0
M  V30 197 C 27.4448 4.8667 -1.0594 0
M  V30 198 C -6.8632 -0.0702 -1.0334 0
M  V30 199 C -6.8645 28.7330 -1.0314 0
M  V30 200 C 27.4451 14.4673 -1.0597 0
M  V30 201 C -7.3566 27.5537 -4.2236 0
M  V30 202 C -7.3538 3.5523 -4.2150 0
M  V30 203 C -7.2944 1.2551 -1.0369 0
M  V30 204 C -7.3548 32.3560 -4.2148 0
M  V30 205 C -7.2954 20.4577 -1.0351 0
M  V30 206 C -7.3280 42.0345 -4.2248 0
M  V30 207 C -7.3549 13.1543 -4.2146 0
M  V30 208 C 27.8763 32.3426 -1.0560 0
M  V30 209 C -7.3562 8.3520 -4.2235 0
M  V30 210 C 27.8763 13.1419 -1.0563 0
M  V30 211 C 27.8764 22.7423 -1.0562 0
M  V30 212 C -7.2944 39.6606 -1.0368 0
M  V30 213 C 27.8761 41.9432 -1.0549 0
M  V30 214 C -7.2953 30.0587 -1.0354 0
M  V30 215 C -7.3562 37.1556 -4.2240 0
M  V30 216 C -7.3550 22.7550 -4.2146 0
M  V30 217 C -7.3169 -1.3341 -4.2452 0
M  V30 218 C -7.2953 10.8567 -1.0353 0
M  V30 219 C 27.8759 3.5413 -1.0559 0
M  V30 220 C -7.3565 17.9529 -4.2236 0
M  V30 221 H -4.5225 1.2010 3.4955 0
M  V30 222 H 25.1065 22.8054 3.5022 0
M  V30 223 H -4.5156 39.6082 3.5144 0
M  V30 224 H -4.5217 13.2052 -8.8028 0
M  V30 225 H 25.1083 42.0062 3.4980 0
M  V30 226 H -4.5228 22.8061 -8.7990 0
M  V30 227 H 25.1069 32.4054 3.5011 0
M  V30 228 H -4.5168 30.0087 3.5087 0
M  V30 229 H -4.5196 3.6037 -8.8104 0
M  V30 230 H -4.5292 42.0147 -8.7776 0
M  V30 231 H -4.5256 37.2092 -8.7900 0
M  V30 232 H -4.5208 8.4044 -8.8059 0
M  V30 233 H -4.5179 20.4081 3.5053 0
M  V30 234 H -4.5194 10.8063 3.5018 0
M  V30 235 H 25.1062 13.2052 3.5037 0
M  V30 236 H -4.5233 27.6066 -8.7973 0
M  V30 237 H 25.1055 3.6043 3.5072 0
M  V30 238 H -4.5155 -1.1966 -8.8243 0
M  V30 239 H -4.5243 32.4077 -8.7944 0
M  V30 240 H -4.5222 18.0054 -8.8011 0
M  V30 241 H -3.4178 20.3355 -7.5750 0
M  V30 242 H -3.4190 10.7348 -7.5757 0
M  V30 243 H -3.4128 27.6592 2.2735 0
M  V30 244 H -3.4158 34.7365 -7.5739 0
M  V30 245 H -3.4059 44.3457 -7.5716 0
M  V30 246 H -3.4143 37.2599 2.2745 0
M  V30 247 H -3.4201 5.9341 -7.5763 0
M  V30 248 H 23.9987 25.1413 2.2741 0
M  V30 249 H -3.4172 25.1358 -7.5747 0
M  V30 250 H -3.4110 8.4583 2.2724 0
M  V30 251 H 23.9967 44.3421 2.2730 0
M  V30 252 H 23.9983 34.7415 2.2738 0
M  V30 253 H -3.4183 15.5352 -7.5753 0
M  V30 254 H -3.4235 1.1312 -7.5768 0
M  V30 255 H -3.4167 29.9360 -7.5744 0
M  V30 256 H -3.4144 39.5372 -7.5730 0
M  V30 257 H 23.9998 5.9407 2.2747 0
M  V30 258 H -3.4091 -1.1426 2.2713 0
M  V30 259 H 23.9991 15.5411 2.2743 0
M  V30 260 H -3.4119 18.0587 2.2729 0
M  V30 261 H -2.9824 10.2063 -5.3618 0
M  V30 262 H -2.9825 15.0058 -5.3622 0
M  V30 263 H 23.5784 15.0064 0.0602 0
M  V30 264 H 23.5787 43.8055 0.0602 0
M  V30 265 H 23.5783 5.4068 0.0600 0
M  V30 266 H -2.9829 39.0043 -5.3625 0
M  V30 267 H -2.9848 43.8104 -5.3631 0
M  V30 268 H -2.9933 28.1933 0.0589 0
M  V30 269 H -2.9827 34.2047 -5.3625 0
M  V30 270 H -2.9911 0.6006 -5.3600 0
M  V30 271 H -2.9931 37.7926 0.0587 0
M  V30 272 H -2.9825 19.8057 -5.3621 0
M  V30 273 H -2.9934 18.5938 0.0591 0
M  V30 274 H -2.9826 24.6053 -5.3624 0
M  V30 275 H 23.5784 24.6062 0.0603 0
M  V30 276 H -2.9935 8.9942 0.0593 0
M  V30 277 H -2.9823 5.4067 -5.3618 0
M  V30 278 H 23.5785 34.2060 0.0603 0
M  V30 279 H -2.9826 29.4052 -5.3622 0
M  V30 280 H -2.9936 -0.6048 0.0597 0
M  V30 281 H -2.7110 32.5276 -5.6972 0
M  V30 282 H -2.7111 27.7279 -5.6972 0
M  V30 283 H -2.7113 13.3285 -5.6973 0
M  V30 284 H 23.3061 32.5283 0.3923 0
M  V30 285 H -2.7108 37.3270 -5.6970 0
M  V30 286 H 23.3062 13.3286 0.3924 0
M  V30 287 H -2.7114 3.7293 -5.6973 0
M  V30 288 H -2.7113 18.1283 -5.6973 0
M  V30 289 H -2.7111 -1.0723 -5.6971 0
M  V30 290 H -2.7214 20.2718 0.3913 0
M  V30 291 H 23.3062 22.9284 0.3924 0
M  V30 292 H -2.7114 8.5288 -5.6974 0
M  V30 293 H -2.7215 39.4708 0.3916 0
M  V30 294 H 23.3063 3.7289 0.3924 0
M  V30 295 H 23.3059 42.1277 0.3920 0
M  V30 296 H -2.7215 29.8714 0.3914 0
M  V30 297 H -2.7208 1.0729 0.3912 0
M  V30 298 H -2.7111 22.9281 -5.6973 0
M  V30 299 H -2.7213 10.6721 0.3913 0
M  V30 300 H -2.7204 42.1290 -5.6929 0
M  V30 301 H -4.5691 -2.7241 -5.6926 0
M  V30 302 H -4.5622 26.2264 -5.7888 0
M  V30 303 H -4.5615 2.2282 -5.7876 0
M  V30 304 H -4.5748 12.3129 0.3701 0
M  V30 305 H -4.5621 11.8276 -5.7885 0
M  V30 306 H -4.5618 16.6273 -5.7890 0
M  V30 307 H 25.1604 21.2907 0.3797 0
M  V30 308 H -4.5614 7.0285 -5.7892 0
M  V30 309 H -4.5628 35.8250 -5.7882 0
M  V30 310 H -4.5629 31.0257 -5.7880 0
M  V30 311 H 25.1603 11.6911 0.3799 0
M  V30 312 H -4.5664 40.6409 -5.7782 0
M  V30 313 H -4.5729 41.1088 0.3730 0
M  V30 314 H 25.1601 2.0919 0.3797 0
M  V30 315 H -4.5762 2.7142 0.3706 0
M  V30 316 H -4.5737 31.5111 0.3709 0
M  V30 317 H 25.1606 30.8903 0.3794 0
M  V30 318 H -4.5742 21.9121 0.3702 0
M  V30 319 H -4.5625 21.4267 -5.7883 0
M  V30 320 H 25.1612 40.4893 0.3786 0
M  V30 321 H -5.1558 29.9517 -4.5725 0
M  V30 322 H -5.2815 17.7663 -0.5350 0
M  V30 323 H -5.2828 36.9655 -0.5342 0
M  V30 324 H -5.1560 20.3518 -4.5726 0
M  V30 325 H -5.1595 1.1344 -4.5788 0
M  V30 326 H -5.2819 27.3660 -0.5349 0
M  V30 327 H 25.8674 35.0340 -0.5227 0
M  V30 328 H -5.2816 -1.4325 -0.5326 0
M  V30 329 H -5.1572 39.5552 -4.5739 0
M  V30 330 H -5.2806 44.6498 -4.7739 0
M  V30 331 H -5.1561 15.5518 -4.5749 0
M  V30 332 H 25.8681 44.6336 -0.5244 0
M  V30 333 H -5.1567 5.9520 -4.5746 0
M  V30 334 H -5.1556 34.7516 -4.5747 0
M  V30 335 H -5.2812 8.1666 -0.5345 0
M  V30 336 H 25.8673 25.4341 -0.5224 0
M  V30 337 H -5.1558 25.1517 -4.5749 0
M  V30 338 H 25.8680 6.2344 -0.5226 0
M  V30 339 H 25.8674 15.8342 -0.5223 0
M  V30 340 H -5.1564 10.7519 -4.5725 0
M  V30 341 H -6.9158 11.3900 -4.9975 0
M  V30 342 H -6.7976 41.6887 -0.5284 0
M  V30 343 H 27.3848 1.5116 -0.5189 0
M  V30 344 H -6.7945 12.8908 -0.5300 0
M  V30 345 H -6.9153 20.9898 -4.9976 0
M  V30 346 H 27.3832 30.3108 -0.5181 0
M  V30 347 H -6.9160 16.1879 -4.9985 0
M  V30 348 H -6.9150 30.5897 -4.9973 0
M  V30 349 H 27.3834 39.9108 -0.5189 0
M  V30 350 H -6.9163 1.7869 -4.9937 0
M  V30 351 H -6.9131 40.2069 -4.9876 0
M  V30 352 H -6.9169 6.5882 -4.9982 0
M  V30 353 H -6.9157 25.7877 -4.9984 0
M  V30 354 H -6.7954 32.0900 -0.5298 0
M  V30 355 H 27.3836 11.1110 -0.5179 0
M  V30 356 H 27.3833 20.7108 -0.5179 0
M  V30 357 H -6.9155 35.3878 -4.9979 0
M  V30 358 H -6.7947 3.2909 -0.5288 0
M  V30 359 H -6.7948 22.4905 -0.5301 0
M  V30 360 H -6.8004 -3.3054 -4.7875 0
M  V30 361 H -7.5268 34.3267 -3.7621 0
M  V30 362 H -7.4986 37.5485 -1.4337 0
M  V30 363 H 28.0908 15.2522 -1.4353 0
M  V30 364 H -7.5206 0.7083 -3.7801 0
M  V30 365 H -7.4993 18.3505 -1.4356 0
M  V30 366 H 28.0908 5.6522 -1.4353 0
M  V30 367 H -7.5250 29.5259 -3.7719 0
M  V30 368 H -7.5122 44.0708 -3.8537 0
M  V30 369 H -7.5245 19.9268 -3.7722 0
M  V30 370 H -7.5256 15.1286 -3.7628 0
M  V30 371 H 28.0910 24.8520 -1.4354 0
M  V30 372 H 28.0917 44.0505 -1.4373 0
M  V30 373 H -7.5251 5.5293 -3.7629 0
M  V30 374 H -7.5031 -0.8466 -1.4344 0
M  V30 375 H -7.5241 10.3275 -3.7724 0
M  V30 376 H -7.5260 24.7279 -3.7626 0
M  V30 377 H -7.4988 27.9497 -1.4352 0
M  V30 378 H 28.0912 34.4517 -1.4358 0
M  V30 379 H -7.5002 8.7515 -1.4355 0
M  V30 380 H -7.5263 39.1252 -3.7716 0
M  V30 381 H 28.8591 41.6878 -1.4293 0
M  V30 382 H -8.3174 3.2797 -3.8633 0
M  V30 383 H -8.2684 20.7119 -1.4354 0
M  V30 384 H 28.8597 22.4886 -1.4284 0
M  V30 385 H -8.3171 12.8753 -3.8651 0
M  V30 386 H 28.8596 32.0883 -1.4286 0
M  V30 387 H -8.2701 39.9077 -1.4342 0
M  V30 388 H -8.3168 17.6748 -3.8678 0
M  V30 389 H -8.2686 1.5154 -1.4333 0
M  V30 390 H -8.3149 36.8692 -3.8668 0
M  V30 391 H 28.8600 3.2900 -1.4288 0
M  V30 392 H -8.2682 11.1133 -1.4350 0
M  V30 393 H -8.2688 30.3104 -1.4353 0
M  V30 394 H -8.2874 41.6944 -3.8662 0
M  V30 395 H -8.3160 27.2721 -3.8677 0
M  V30 396 H -8.2982 -1.5296 -3.8702 0
M  V30 397 H -8.3151 32.0695 -3.8645 0
M  V30 398 H -8.3162 22.4721 -3.8652 0
M  V30 399 H -8.3174 8.0780 -3.8670 0
M  V30 400 H 28.8599 12.8891 -1.4284 0
M  V30 401 N 21.7720 43.4792 3.0704 0
M  V30 402 N 21.7709 24.2750 3.0699 0
M  V30 403 N -1.1680 29.0794 -8.3474 0
M  V30 404 N -1.1677 9.8751 -8.3467 0
M  V30 405 N -1.1862 38.1272 3.0799 0
M  V30 406 N -1.1878 -0.2830 3.0793 0
M  V30 407 N -1.1678 24.2785 -8.3469 0
M  V30 408 N -1.1676 14.6766 -8.3466 0
M  V30 409 N 21.7707 33.8758 3.0703 0
M  V30 410 N -1.1787 43.4888 -8.3608 0
M  V30 411 N 21.7701 5.0723 3.0688 0
M  V30 412 N -1.1691 0.2666 -8.3476 0
M  V30 413 N -1.1679 5.0727 -8.3465 0
M  V30 414 N -1.1871 9.3206 3.0827 0
M  V30 415 N -1.1871 28.5238 3.0826 0
M  V30 416 N -1.1691 38.6827 -8.3491 0
M  V30 417 N -1.1682 33.8807 -8.3475 0
M  V30 418 N -1.1873 18.9221 3.0833 0
M  V30 419 N -1.1678 19.4776 -8.3470 0
M  V30 420 N 21.7707 14.6741 3.0694 0
M  V30 421 C 0.0027 42.9063 -8.9967 0
M  V30 422 C 0.0034 -0.2815 -8.9959 0
M  V30 423 C 20.5730 23.7147 3.6921 0
M  V30 424 C 20.5729 4.5168 3.6924 0
M  V30 425 C 0.0011 28.5133 -8.9965 0
M  V30 426 C 0.0086 29.0846 3.6869 0
M  V30 427 C 0.0012 33.3123 -8.9967 0
M  V30 428 C 0.0024 4.5181 -8.9969 0
M  V30 429 C 20.5732 42.9128 3.6924 0
M  V30 430 C 20.5729 14.1154 3.6923 0
M  V30 431 C 0.0089 0.2887 3.6888 0
M  V30 432 C 0.0014 14.1154 -8.9967 0
M  V30 433 C 0.0011 23.7140 -8.9966 0
M  V30 434 C 0.0094 38.6826 3.6879 0
M  V30 435 C 20.5734 33.3141 3.6920 0
M  V30 436 C 0.0081 9.8869 3.6870 0
M  V30 437 C 0.0012 18.9147 -8.9965 0
M  V30 438 C 0.0016 38.1106 -8.9967 0
M  V30 439 C 0.0017 9.3164 -8.9967 0
M  V30 440 C 0.0082 19.4858 3.6867 0
M  V30 441 C 19.3665 14.8078 3.0950 0
M  V30 442 C 1.2134 0.4075 -8.3960 0
M  V30 443 C 1.2128 29.2031 -8.3954 0
M  V30 444 C 1.2136 28.3938 3.0834 0
M  V30 445 C 1.2132 18.7940 3.0831 0
M  V30 446 C 1.2135 10.0039 -8.3958 0
M  V30 447 C 1.2130 19.6033 -8.3954 0
M  V30 448 C 19.3667 24.4077 3.0947 0
M  V30 449 C 1.2129 34.0031 -8.3958 0
M  V30 450 C 1.2147 37.9930 3.0852 0
M  V30 451 C 19.3672 34.0076 3.0942 0
M  V30 452 C 1.2141 5.2047 -8.3962 0
M  V30 453 C 19.3674 43.6075 3.0945 0
M  V30 454 C 1.2127 43.6027 -8.3959 0
M  V30 455 C 1.2140 -0.4060 3.0868 0
M  V30 456 C 1.2129 24.4031 -8.3955 0
M  V30 457 C 1.2131 9.1939 3.0836 0
M  V30 458 C 1.2131 38.8031 -8.3959 0
M  V30 459 C 1.2132 14.8034 -8.3957 0
M  V30 460 C 19.3663 5.2081 3.0951 0
M  V30 461 O 1.3317 30.4211 -8.2360 0
M  V30 462 O 1.3333 6.4177 -8.2342 0
M  V30 463 O 1.3074 17.5699 2.9658 0
M  V30 464 O 1.3077 27.1710 2.9652 0
M  V30 465 O 1.3339 11.2184 -8.2350 0
M  V30 466 O 1.3311 1.6178 -8.2347 0
M  V30 467 O 1.3337 16.0189 -8.2352 0
M  V30 468 O 1.3070 36.7724 2.9625 0
M  V30 469 O 1.3243 40.0248 -8.2373 0
M  V30 470 O 1.3062 7.9686 2.9648 0
M  V30 471 O 1.3294 35.2223 -8.2359 0
M  V30 472 O 1.3335 20.8196 -8.2358 0
M  V30 473 O 1.2899 -1.6313 2.9532 0
M  V30 474 O 19.2945 35.2304 2.9490 0
M  V30 475 O 19.2941 6.4281 2.9470 0
M  V30 476 O 19.2953 16.0289 2.9476 0
M  V30 477 O 19.2955 25.6296 2.9482 0
M  V30 478 O 1.2949 44.8291 -8.2437 0
M  V30 479 O 1.3327 25.6201 -8.2357 0
M  V30 480 O 19.3064 44.8300 2.9427 0
M  V30 481 C -0.0385 33.4983 -10.5261 0
M  V30 482 C -0.0384 14.2989 -10.5263 0
M  V30 483 C -0.0384 23.8986 -10.5262 0
M  V30 484 C -0.0280 9.6911 5.2199 0
M  V30 485 C 20.6146 43.1089 5.2213 0
M  V30 486 C -0.0280 38.4901 5.2201 0
M  V30 487 C -0.0385 38.2980 -10.5260 0
M  V30 488 C -0.0384 9.4991 -10.5263 0
M  V30 489 C -0.0284 0.0917 5.2204 0
M  V30 490 C -0.0385 28.6985 -10.5262 0
M  V30 491 C -0.0381 -0.0997 -10.5258 0
M  V30 492 C -0.0279 19.2909 5.2199 0
M  V30 493 C 20.6145 4.7102 5.2211 0
M  V30 494 C 20.6145 23.9098 5.2211 0
M  V30 495 C -0.0383 4.6994 -10.5263 0
M  V30 496 C -0.0380 43.0969 -10.5259 0
M  V30 497 C 20.6145 33.5096 5.2210 0
M  V30 498 C -0.0384 19.0987 -10.5262 0
M  V30 499 C -0.0279 28.8906 5.2199 0
M  V30 500 C 20.6145 14.3099 5.2211 0
M  V30 501 C 19.4210 4.1249 5.9976 0
M  V30 502 C 19.4217 42.5231 5.9985 0
M  V30 503 C 1.1647 19.8763 5.9993 0
M  V30 504 C 19.4213 23.3244 5.9983 0
M  V30 505 C 1.1610 13.7042 -11.3005 0
M  V30 506 C 1.1615 4.1051 -11.2998 0
M  V30 507 C 19.4212 13.7246 5.9981 0
M  V30 508 C 1.1612 8.9045 -11.3003 0
M  V30 509 C 1.1579 42.5014 -11.3009 0
M  V30 510 C 1.1641 0.6775 5.9992 0
M  V30 511 C 19.4214 32.9241 5.9984 0
M  V30 512 C 1.1645 10.2766 5.9993 0
M  V30 513 C 1.1651 39.0755 5.9983 0
M  V30 514 C 1.1604 28.1037 -11.3009 0
M  V30 515 C 1.1625 -0.6928 -11.2982 0
M  V30 516 C 1.1649 29.4759 5.9990 0
M  V30 517 C 1.1595 37.7032 -11.3008 0
M  V30 518 C 1.1606 23.3039 -11.3008 0
M  V30 519 C 1.1608 18.5040 -11.3007 0
M  V30 520 C 1.1601 32.9036 -11.3009 0
M  V30 521 C 19.3759 4.3432 7.5198 0
M  V30 522 C 1.2065 19.6662 7.5199 0
M  V30 523 C 19.3779 13.9401 7.5203 0
M  V30 524 C 1.2019 33.0861 -12.8312 0
M  V30 525 C 1.2076 13.8933 -12.8295 0
M  V30 526 C 1.1906 42.6756 -12.8330 0
M  V30 527 C 1.2082 29.2634 7.5195 0
M  V30 528 C 19.3790 23.5384 7.5205 0
M  V30 529 C 1.2037 28.2880 -12.8307 0
M  V30 530 C 1.2122 4.3019 -12.8278 0
M  V30 531 C 1.2062 18.6913 -12.8299 0
M  V30 532 C 19.3801 33.1363 7.5208 0
M  V30 533 C 1.2107 38.8586 7.5189 0
M  V30 534 C 1.1988 37.8833 -12.8320 0
M  V30 535 C 19.3818 42.7317 7.5208 0
M  V30 536 C 1.2025 0.4736 7.5206 0
M  V30 537 C 1.2205 -0.4821 -12.8239 0
M  V30 538 C 1.2048 10.0689 7.5203 0
M  V30 539 C 1.2093 9.0963 -12.8289 0
M  V30 540 C 1.2050 23.4896 -12.8303 0
M  V30 541 O 0.2108 9.5007 8.0759 0
M  V30 542 O 20.3910 24.0903 8.0619 0
M  V30 543 O 0.2033 38.3232 8.0773 0
M  V30 544 O 0.2743 19.3185 -13.3963 0
M  V30 545 O 20.3840 43.3013 8.0593 0
M  V30 546 O 0.2711 9.7089 -13.3970 0
M  V30 547 O 0.2799 43.3732 -13.3698 0
M  V30 548 O 0.2095 19.1075 8.0789 0
M  V30 549 O 0.2074 28.7140 8.0796 0
M  V30 550 O 0.2666 4.8996 -13.3963 0
M  V30 551 O 20.3932 4.8799 8.0622 0
M  V30 552 O 0.2134 -0.1077 8.0694 0
M  V30 553 O 0.2732 14.5144 -13.3968 0
M  V30 554 O 20.3891 33.6947 8.0612 0
M  V30 555 O 20.3920 14.4863 8.0623 0
M  V30 556 O 0.2751 24.1224 -13.3954 0
M  V30 557 O 0.2548 0.0743 -13.3945 0
M  V30 558 O 0.2757 28.9268 -13.3938 0
M  V30 559 O 0.2753 38.5431 -13.3838 0
M  V30 560 O 0.2759 33.7326 -13.3906 0
M  V30 561 O 18.3906 32.6457 8.1138 0 CHG=-1
M  V30 562 O 2.2051 10.5460 8.1167 0 CHG=-1
M  V30 563 O 18.3928 23.0405 8.1136 0 CHG=-1
M  V30 564 O 2.2778 32.6544 -13.3811 0 CHG=-1
M  V30 565 O 2.2762 37.4617 -13.3815 0 CHG=-1
M  V30 566 O 2.2778 23.0455 -13.3805 0 CHG=-1
M  V30 567 O 18.3840 42.2557 8.1109 0 CHG=-1
M  V30 568 O 18.3935 13.4355 8.1119 0 CHG=-1
M  V30 569 O 18.3945 3.8263 8.1073 0 CHG=-1
M  V30 570 O 2.2699 3.8193 -13.3756 0 CHG=-1
M  V30 571 O 2.2772 18.2416 -13.3800 0 CHG=-1
M  V30 572 O 2.2031 20.1529 8.1168 0 CHG=-1
M  V30 573 O 2.2720 42.2811 -13.3833 0 CHG=-1
M  V30 574 O 2.2014 29.7603 8.1149 0 CHG=-1
M  V30 575 O 2.2781 27.8496 -13.3809 0 CHG=-1
M  V30 576 O 2.2743 8.6306 -13.3779 0 CHG=-1
M  V30 577 O 2.1983 39.3726 8.1094 0 CHG=-1
M  V30 578 O 2.2101 0.9359 8.1127 0 CHG=-1
M  V30 579 O 2.2762 13.4370 -13.3792 0 CHG=-1
M  V30 580 O 2.2522 -1.0126 -13.3730 0 CHG=-1
M  V30 581 H -1.2720 44.4743 -8.1871 0
M  V30 582 H -1.2969 25.2851 -8.1987 0
M  V30 583 H -1.2704 27.5234 2.8686 0
M  V30 584 H 21.8486 25.2786 2.8820 0
M  V30 585 H -1.2961 6.0855 -8.1997 0
M  V30 586 H 21.8494 34.8783 2.8814 0
M  V30 587 H 21.8475 44.4713 2.8816 0
M  V30 588 H -1.2969 15.6854 -8.1992 0
M  V30 589 H -1.2699 37.1230 2.8712 0
M  V30 590 H 21.8486 15.6787 2.8824 0
M  V30 591 H -1.2964 34.8842 -8.1982 0
M  V30 592 H -1.2967 30.0846 -8.1983 0
M  V30 593 H -1.2708 8.3240 2.8683 0
M  V30 594 H -1.2675 -1.2694 2.8717 0
M  V30 595 H -1.2969 20.4852 -8.1987 0
M  V30 596 H -1.2967 10.8854 -8.1992 0
M  V30 597 H -1.2706 17.9237 2.8679 0
M  V30 598 H 21.8492 6.0787 2.8829 0
M  V30 599 H -1.2949 39.6826 -8.1966 0
M  V30 600 H -1.2948 1.2847 -8.1990 0
M  V30 601 H 0.0485 41.8448 -8.7445 0
M  V30 602 H 0.0500 27.4488 -8.7466 0
M  V30 603 H 0.0606 20.5533 3.4383 0
M  V30 604 H 0.0598 -1.3535 -8.7456 0
M  V30 605 H 0.0498 32.2482 -8.7465 0
M  V30 606 H 0.0503 17.8498 -8.7469 0
M  V30 607 H 0.0496 37.0471 -8.7460 0
M  V30 608 H 0.0608 30.1524 3.4386 0
M  V30 609 H 20.5246 41.8467 3.4391 0
M  V30 610 H 0.0601 1.3549 3.4379 0
M  V30 611 H 0.0613 39.7508 3.4393 0
M  V30 612 H 0.0510 3.4523 -8.7477 0
M  V30 613 H 20.5240 22.6479 3.4397 0
M  V30 614 H 0.0506 8.2510 -8.7473 0
M  V30 615 H 20.5242 32.2474 3.4395 0
M  V30 616 H 0.0604 10.9541 3.4381 0
M  V30 617 H 0.0501 22.6493 -8.7468 0
M  V30 618 H 20.5239 13.0484 3.4399 0
M  V30 619 H 20.5236 3.4494 3.4402 0
M  V30 620 H 0.0504 13.0503 -8.7471 0
M  V30 621 H 20.7019 34.5774 5.4424 0
M  V30 622 H -0.1161 37.4226 5.4427 0
M  V30 623 H -0.1193 34.5706 -10.7443 0
M  V30 624 H 20.7019 44.1769 5.4426 0
M  V30 625 H -0.1194 5.7709 -10.7450 0
M  V30 626 H -0.1193 24.9707 -10.7445 0
M  V30 627 H -0.1161 27.8228 5.4424 0
M  V30 628 H -0.1161 8.6229 5.4421 0
M  V30 629 H -0.1161 -0.9765 5.4422 0
M  V30 630 H -0.1193 39.3704 -10.7440 0
M  V30 631 H 20.7019 24.9775 5.4425 0
M  V30 632 H -0.1160 18.2229 5.4422 0
M  V30 633 H -0.1195 0.9715 -10.7453 0
M  V30 634 H -0.1193 10.5708 -10.7448 0
M  V30 635 H -0.1182 44.1704 -10.7438 0
M  V30 636 H -0.1193 20.1707 -10.7446 0
M  V30 637 H 20.7019 15.3775 5.4426 0
M  V30 638 H -0.1193 15.3708 -10.7447 0
M  V30 639 H 20.7019 5.7776 5.4428 0
M  V30 640 H -0.1193 29.7706 -10.7444 0
M  V30 641 H -0.9694 33.0575 -10.9048 0
M  V30 642 H -0.9695 42.6574 -10.9046 0
M  V30 643 H 21.5483 33.0852 5.6029 0
M  V30 644 H -0.9692 4.2575 -10.9046 0
M  V30 645 H -0.9693 18.6575 -10.9048 0
M  V30 646 H 21.5485 42.6850 5.6030 0
M  V30 647 H -0.9692 9.0575 -10.9047 0
M  V30 648 H -0.9690 -0.5422 -10.9044 0
M  V30 649 H -0.9693 28.2575 -10.9048 0
M  V30 650 H -0.9693 13.8575 -10.9048 0
M  V30 651 H 21.5483 23.4852 5.6029 0
M  V30 652 H 21.5483 13.8852 5.6028 0
M  V30 653 H -0.9622 19.7147 5.6029 0
M  V30 654 H -0.9623 10.1147 5.6030 0
M  V30 655 H -0.9626 0.5150 5.6032 0
M  V30 656 H -0.9622 38.9147 5.6028 0
M  V30 657 H -0.9693 23.4575 -10.9048 0
M  V30 658 H -0.9621 29.3147 5.6029 0
M  V30 659 H -0.9694 37.8575 -10.9048 0
M  V30 660 H 21.5482 4.2852 5.6028 0
M  V30 661 H 1.2334 22.2239 -11.1155 0
M  V30 662 H 1.2445 11.3521 5.8188 0
M  V30 663 H 1.2446 20.9521 5.8190 0
M  V30 664 H 19.3411 41.4477 5.8186 0
M  V30 665 H 1.2333 31.8240 -11.1152 0
M  V30 666 H 19.3412 12.6482 5.8192 0
M  V30 667 H 1.2332 36.6240 -11.1150 0
M  V30 668 H 19.3412 31.8481 5.8190 0
M  V30 669 H 1.2330 41.4235 -11.1142 0
M  V30 670 H 1.2325 -1.7762 -11.1173 0
M  V30 671 H 1.2445 1.7525 5.8184 0
M  V30 672 H 19.3412 3.0482 5.8194 0
M  V30 673 H 1.2334 17.4239 -11.1156 0
M  V30 674 H 19.3412 22.2482 5.8191 0
M  V30 675 H 1.2334 27.0239 -11.1154 0
M  V30 676 H 1.2446 30.5521 5.8192 0
M  V30 677 H 1.2334 3.0238 -11.1163 0
M  V30 678 H 1.2334 12.6239 -11.1157 0
M  V30 679 H 1.2445 40.1521 5.8194 0
M  V30 680 H 1.2334 7.8238 -11.1159 0
M  V30 681 H 2.1053 19.4554 5.6347 0
M  V30 682 H 2.1018 14.1407 -10.9384 0
M  V30 683 H 2.1016 28.5408 -10.9390 0
M  V30 684 H 18.4805 23.7446 5.6344 0
M  V30 685 H 2.1017 23.7408 -10.9388 0
M  V30 686 H 2.1019 9.3407 -10.9381 0
M  V30 687 H 2.1012 38.1407 -10.9396 0
M  V30 688 H 2.1023 -0.2592 -10.9360 0
M  V30 689 H 2.1055 38.6554 5.6339 0
M  V30 690 H 2.1014 33.3408 -10.9392 0
M  V30 691 H 2.1001 42.9401 -10.9408 0
M  V30 692 H 2.1050 0.2555 5.6355 0
M  V30 693 H 18.4807 42.9445 5.6351 0
M  V30 694 H 2.1054 29.0554 5.6344 0
M  V30 695 H 18.4806 33.3446 5.6346 0
M  V30 696 H 2.1018 18.9408 -10.9386 0
M  V30 697 H 2.1020 4.5407 -10.9376 0
M  V30 698 H 18.4803 4.5446 5.6339 0
M  V30 699 H 18.4805 14.1446 5.6342 0
M  V30 700 H 2.1052 9.8554 5.6350 0
M  V30 701 N 18.3197 33.1995 2.7647 0
M  V30 702 N 2.2739 38.8043 2.7786 0
M  V30 703 N 2.2756 29.2023 2.7815 0
M  V30 704 N 18.3177 42.8009 2.7664 0
M  V30 705 N 2.2794 33.1974 -8.0732 0
M  V30 706 N 2.2752 0.3975 2.7788 0
M  V30 707 N 2.2801 23.5951 -8.0739 0
M  V30 708 N 18.3203 13.9978 2.7636 0
M  V30 709 N 2.2760 19.6009 2.7822 0
M  V30 710 N 2.2801 13.9936 -8.0737 0
M  V30 711 N 2.2786 37.9995 -8.0725 0
M  V30 712 N 2.2790 4.3916 -8.0727 0
M  V30 713 N 2.2798 9.1927 -8.0735 0
M  V30 714 N 2.2729 -0.4106 -8.0714 0
M  V30 715 N 2.2775 42.8035 -8.0721 0
M  V30 716 N 2.2800 28.3961 -8.0739 0
M  V30 717 N 18.3203 4.3966 2.7638 0
M  V30 718 N 18.3202 23.5987 2.7640 0
M  V30 719 N 2.2756 9.9994 2.7815 0
M  V30 720 N 2.2803 18.7944 -8.0741 0
M  V30 721 C 3.4277 38.6166 -7.4704 0
M  V30 722 C 17.1542 24.2130 2.1665 0
M  V30 723 C 3.4257 29.0188 -7.4706 0
M  V30 724 C 3.4278 43.4197 -7.4687 0
M  V30 725 C 17.1545 33.8122 2.1664 0
M  V30 726 C 3.4255 28.5859 2.1630 0
M  V30 727 C 3.4254 18.9870 2.1629 0
M  V30 728 C 3.4235 0.2204 -7.4662 0
M  V30 729 C 3.4258 -0.2160 2.1631 0
M  V30 730 C 3.4254 24.2195 -7.4706 0
M  V30 731 C 3.4257 5.0226 -7.4705 0
M  V30 732 C 3.4264 33.8179 -7.4706 0
M  V30 733 C 17.1546 5.0149 2.1666 0
M  V30 734 C 3.4252 19.4201 -7.4706 0
M  V30 735 C 3.4252 9.8215 -7.4706 0
M  V30 736 C 17.1558 43.4170 2.1652 0
M  V30 737 C 17.1543 14.6137 2.1666 0
M  V30 738 C 3.4260 38.1843 2.1636 0
M  V30 739 C 3.4251 14.6208 -7.4706 0
M  V30 740 C 3.4258 9.3883 2.1632 0
M  V30 741 C 4.6529 -0.4683 -8.0420 0
M  V30 742 C 4.6559 29.2744 2.7350 0
M  V30 743 C 4.6551 33.1335 -8.0473 0
M  V30 744 C 4.6536 9.1337 -8.0466 0
M  V30 745 C 15.9276 4.3232 2.7388 0
M  V30 746 C 4.6540 18.7338 -8.0470 0
M  V30 747 C 15.9270 13.9236 2.7387 0
M  V30 748 C 4.6568 42.7317 -8.0432 0
M  V30 749 C 15.9267 23.5239 2.7386 0
M  V30 750 C 4.6543 23.5338 -8.0471 0
M  V30 751 C 4.6561 0.4730 2.7361 0
M  V30 752 C 4.6554 38.8757 2.7354 0
M  V30 753 C 4.6562 37.9332 -8.0470 0
M  V30 754 C 15.9276 42.7257 2.7380 0
M  V30 755 C 4.6563 19.6738 2.7351 0
M  V30 756 C 4.6536 4.3336 -8.0459 0
M  V30 757 C 15.9267 33.1242 2.7387 0
M  V30 758 C 4.6569 10.0736 2.7356 0
M  V30 759 C 4.6538 13.9338 -8.0469 0
M  V30 760 C 4.6546 28.3337 -8.0472 0
M  V30 761 O 15.8346 12.6942 2.8036 0
M  V30 762 O 15.8330 31.8963 2.8044 0
M  V30 763 O 4.7956 31.9102 -8.1065 0
M  V30 764 O 15.8344 22.2953 2.8041 0
M  V30 765 O 4.7681 30.5027 2.8112 0
M  V30 766 O 4.7931 36.7106 -8.1066 0
M  V30 767 O 4.7963 17.5085 -8.1064 0
M  V30 768 O 4.7680 -1.6981 -8.1130 0
M  V30 769 O 4.7935 7.9065 -8.1064 0
M  V30 770 O 4.7870 41.5106 -8.1074 0
M  V30 771 O 4.7639 40.1056 2.8096 0
M  V30 772 O 4.7891 3.1049 -8.1074 0
M  V30 773 O 4.7697 1.6972 2.8107 0
M  V30 774 O 4.7694 20.9010 2.8118 0
M  V30 775 O 4.7966 22.3091 -8.1064 0
M  V30 776 O 4.7964 27.1097 -8.1065 0
M  V30 777 O 15.8354 3.0927 2.8035 0
M  V30 778 O 4.7698 11.2998 2.8113 0
M  V30 779 O 4.7955 12.7077 -8.1062 0
M  V30 780 O 15.8297 41.4994 2.8056 0
M  V30 781 C 3.4565 43.3175 -5.9413 0
M  V30 782 C 3.4407 0.0834 -5.9339 0
M  V30 783 C 3.4612 33.7080 -5.9448 0
M  V30 784 C 17.1525 14.4806 0.6352 0
M  V30 785 C 17.1526 4.8814 0.6352 0
M  V30 786 C 17.1525 24.0802 0.6352 0
M  V30 787 C 3.4608 9.7105 -5.9447 0
M  V30 788 C 3.4301 19.1201 0.6334 0
M  V30 789 C 17.1459 43.2913 0.6312 0
M  V30 790 C 3.4608 19.3095 -5.9448 0
M  V30 791 C 3.4618 38.5073 -5.9445 0
M  V30 792 C 3.4611 28.9086 -5.9448 0
M  V30 793 C 3.4606 4.9110 -5.9445 0
M  V30 794 C 3.4375 -0.0904 0.6304 0
M  V30 795 C 3.4607 24.1091 -5.9448 0
M  V30 796 C 3.4303 9.5209 0.6336 0
M  V30 797 C 17.1526 33.6797 0.6351 0
M  V30 798 C 3.4301 28.7194 0.6334 0
M  V30 799 C 3.4606 14.5100 -5.9448 0
M  V30 800 C 3.4304 38.3183 0.6336 0
M  V30 801 C 2.1769 38.2347 -5.2948 0
M  V30 802 C 2.1779 33.4326 -5.2941 0
M  V30 803 C 18.4875 23.8137 -0.0277 0
M  V30 804 C 2.1017 19.3863 -0.0232 0
M  V30 805 C 2.1786 19.0309 -5.2946 0
M  V30 806 C 2.1785 28.6317 -5.2946 0
M  V30 807 C 2.1785 9.4300 -5.2949 0
M  V30 808 C 2.1394 -0.2965 -5.2859 0
M  V30 809 C 2.1011 38.5885 -0.0235 0
M  V30 810 C 2.1016 28.9872 -0.0232 0
M  V30 811 C 18.4845 43.0179 -0.0279 0
M  V30 812 C 2.1770 4.6276 -5.2944 0
M  V30 813 C 2.1038 0.1810 -0.0249 0
M  V30 814 C 2.1431 43.1349 -5.2821 0
M  V30 815 C 18.4874 4.6126 -0.0274 0
M  V30 816 C 18.4874 14.2132 -0.0278 0
M  V30 817 C 18.4873 33.4141 -0.0276 0
M  V30 818 C 2.1782 23.8316 -5.2939 0
M  V30 819 C 2.1782 14.2308 -5.2940 0
M  V30 820 C 2.1017 9.7854 -0.0234 0
M  V30 821 C 18.9311 12.8952 -0.1917 0
M  V30 822 C 1.6576 30.3047 -0.1866 0
M  V30 823 C 1.7156 41.8904 -5.1486 0
M  V30 824 C 1.7291 17.8365 -5.1564 0
M  V30 825 C 1.6578 20.7039 -0.1865 0
M  V30 826 C 1.6754 -1.5556 -5.1206 0
M  V30 827 C 18.9311 3.2947 -0.1912 0
M  V30 828 C 1.7288 8.2357 -5.1566 0
M  V30 829 C 1.7284 32.2382 -5.1561 0
M  V30 830 C 1.6571 39.9061 -0.1869 0
M  V30 831 C 1.7285 37.0387 -5.1570 0
M  V30 832 C 18.9311 22.4957 -0.1916 0
M  V30 833 C 1.7272 3.4312 -5.1561 0
M  V30 834 C 1.6583 1.5009 -0.1870 0
M  V30 835 C 1.7286 22.6373 -5.1559 0
M  V30 836 C 1.7291 27.4372 -5.1565 0
M  V30 837 C 18.9299 41.6978 -0.1905 0
M  V30 838 C 1.6578 11.1030 -0.1866 0
M  V30 839 C 18.9309 32.0961 -0.1915 0
M  V30 840 C 1.7285 13.0366 -5.1559 0
M  V30 841 C 1.2580 18.3404 -0.4123 0
M  V30 842 C 1.2223 0.5872 -4.8408 0
M  V30 843 C 1.2259 19.8393 -4.8351 0
M  V30 844 C 19.3314 34.4598 -0.4197 0
M  V30 845 C 1.2259 10.2386 -4.8354 0
M  V30 846 C 1.2576 37.5423 -0.4126 0
M  V30 847 C 19.3316 24.8594 -0.4199 0
M  V30 848 C 1.2244 39.0477 -4.8362 0
M  V30 849 C 1.2627 44.1125 -4.8759 0
M  V30 850 C 1.2595 -0.8655 -0.4124 0
M  V30 851 C 1.2251 24.6396 -4.8319 0
M  V30 852 C 19.3314 5.6585 -0.4196 0
M  V30 853 C 19.3291 44.0644 -0.4179 0
M  V30 854 C 1.2580 27.9412 -0.4123 0
M  V30 855 C 1.2247 34.2405 -4.8320 0
M  V30 856 C 1.2580 8.7396 -0.4126 0
M  V30 857 C 1.2256 29.4400 -4.8351 0
M  V30 858 C 1.2253 15.0389 -4.8320 0
M  V30 859 C 19.3316 15.2591 -0.4199 0
M  V30 860 C 1.2248 5.4376 -4.8327 0
M  V30 861 C 0.3977 30.5745 -0.7146 0
M  V30 862 C 20.1906 22.2274 -0.7239 0
M  V30 863 C 0.3974 40.1758 -0.7151 0
M  V30 864 C 20.1902 41.4286 -0.7227 0
M  V30 865 C 0.4424 17.6436 -4.6152 0
M  V30 866 C 0.4424 8.0428 -4.6154 0
M  V30 867 C 0.4034 -1.8246 -4.5833 0
M  V30 868 C 0.4418 41.7001 -4.6104 0
M  V30 869 C 0.4423 27.2443 -4.6152 0
M  V30 870 C 0.4417 36.8459 -4.6158 0
M  V30 871 C 20.1904 31.8278 -0.7237 0
M  V30 872 C 0.4412 3.2373 -4.6128 0
M  V30 873 C 0.4417 22.4453 -4.6118 0
M  V30 874 C 0.3978 20.9737 -0.7145 0
M  V30 875 C 20.1905 12.6270 -0.7239 0
M  V30 876 C 20.1904 3.0265 -0.7233 0
M  V30 877 C 0.4414 32.0462 -4.6120 0
M  V30 878 C 0.3973 1.7713 -0.7155 0
M  V30 879 C 0.4418 12.8446 -4.6118 0
M  V30 880 C 0.3977 11.3729 -0.7148 0
M  V30 881 C -0.0630 38.8635 -4.2862 0
M  V30 882 C -0.0031 37.8079 -0.9428 0
M  V30 883 C 20.5891 24.5941 -0.9615 0
M  V30 884 C -0.0627 29.2580 -4.2842 0
M  V30 885 C -0.0025 18.6056 -0.9423 0
M  V30 886 C -0.0628 10.0565 -4.2845 0
M  V30 887 C 20.5877 43.7963 -0.9596 0
M  V30 888 C -0.0018 -0.5976 -0.9431 0
M  V30 889 C -0.0613 5.2563 -4.2704 0
M  V30 890 C 20.5891 14.9937 -0.9615 0
M  V30 891 C -0.0610 34.0593 -4.2697 0
M  V30 892 C -0.0538 0.4030 -4.2975 0
M  V30 893 C -0.0627 19.6573 -4.2842 0
M  V30 894 C -0.0026 28.2064 -0.9424 0
M  V30 895 C 20.5890 5.3931 -0.9611 0
M  V30 896 C 20.5889 34.1945 -0.9612 0
M  V30 897 C -0.0608 24.4584 -4.2695 0
M  V30 898 C -0.0081 43.8495 -4.3250 0
M  V30 899 C -0.0024 9.0046 -0.9426 0
M  V30 900 C -0.0609 14.8577 -4.2696 0
M  V30 901 C 21.0148 32.8781 -1.1142 0
M  V30 902 C 21.0150 23.2777 -1.1144 0
M  V30 903 C -0.4301 19.9232 -1.0925 0
M  V30 904 C 21.0149 4.0765 -1.1140 0
M  V30 905 C -0.4302 29.5242 -1.0926 0
M  V30 906 C -0.4982 37.6633 -4.1596 0
M  V30 907 C -0.4982 18.4591 -4.1586 0
M  V30 908 C 21.0149 13.6772 -1.1144 0
M  V30 909 C -0.4304 39.1257 -1.0931 0
M  V30 910 C 21.0146 42.4791 -1.1130 0
M  V30 911 C -0.4951 4.0568 -4.1441 0
M  V30 912 C -0.4955 23.2603 -4.1427 0
M  V30 913 C -0.4655 -0.8445 -4.1834 0
M  V30 914 C -0.4983 8.8582 -4.1589 0
M  V30 915 C -0.4548 42.5924 -4.1595 0
M  V30 916 C -0.4303 0.7204 -1.0942 0
M  V30 917 C -0.4301 10.3222 -1.0928 0
M  V30 918 C -0.4957 32.8613 -4.1429 0
M  V30 919 C -0.4984 28.0599 -4.1587 0
M  V30 920 C -0.4954 13.6595 -4.1428 0
M  V30 921 H 18.3816 12.9795 2.8554 0
M  V30 922 H 2.1672 36.9798 -8.1634 0
M  V30 923 H 18.3815 22.5793 2.8551 0
M  V30 924 H 2.1912 30.2210 2.8432 0
M  V30 925 H 18.3830 41.7786 2.8537 0
M  V30 926 H 2.1638 17.7801 -8.1633 0
M  V30 927 H 2.1932 39.8201 2.8454 0
M  V30 928 H 2.1720 41.7796 -8.1622 0
M  V30 929 H 2.1653 32.1797 -8.1634 0
M  V30 930 H 2.1662 3.3816 -8.1637 0
M  V30 931 H 2.1640 22.5799 -8.1633 0
M  V30 932 H 2.1853 -1.4118 -8.1618 0
M  V30 933 H 18.3818 3.3802 2.8554 0
M  V30 934 H 2.1909 20.6214 2.8426 0
M  V30 935 H 2.1644 8.1808 -8.1637 0
M  V30 936 H 2.1912 11.0216 2.8432 0
M  V30 937 H 18.3822 32.1791 2.8547 0
M  V30 938 H 2.1644 27.3798 -8.1632 0
M  V30 939 H 2.1639 12.9803 -8.1635 0
M  V30 940 H 2.1930 1.4221 2.8451 0
M  V30 941 H 3.4612 37.1292 2.4591 0
M  V30 942 H 3.4528 20.4744 -7.7617 0
M  V30 943 H 17.1237 15.6696 2.4599 0
M  V30 944 H 3.4616 17.9311 2.4580 0
M  V30 945 H 17.1238 44.4785 2.4599 0
M  V30 946 H 3.4534 39.6718 -7.7607 0
M  V30 947 H 3.4532 34.8728 -7.7611 0
M  V30 948 H 17.1236 25.2691 2.4596 0
M  V30 949 H 3.4615 44.4795 -7.7620 0
M  V30 950 H 3.4615 27.5303 2.4583 0
M  V30 951 H 3.4523 6.0759 -7.7625 0
M  V30 952 H 3.4529 25.2739 -7.7615 0
M  V30 953 H 3.4525 10.8753 -7.7621 0
M  V30 954 H 3.4619 8.3319 2.4577 0
M  V30 955 H 3.4617 -1.2778 2.4586 0
M  V30 956 H 17.1239 6.0704 2.4602 0
M  V30 957 H 17.1235 34.8685 2.4593 0
M  V30 958 H 3.4530 30.0734 -7.7613 0
M  V30 959 H 3.4527 15.6748 -7.7619 0
M  V30 960 H 3.4519 1.2750 -7.7604 0
M  V30 961 H 16.7218 44.2070 0.1991 0
M  V30 962 H 3.8767 34.6111 -5.5025 0
M  V30 963 H 3.8402 27.8140 0.1916 0
M  V30 964 H 3.8768 20.2118 -5.5022 0
M  V30 965 H 3.8403 37.4134 0.1913 0
M  V30 966 H 3.8626 1.0018 -5.4975 0
M  V30 967 H 16.7447 15.3862 0.1921 0
M  V30 968 H 16.7448 24.9860 0.1922 0
M  V30 969 H 16.7448 34.5858 0.1924 0
M  V30 970 H 3.8776 44.2173 -5.5053 0
M  V30 971 H 3.8771 5.8127 -5.5016 0
M  V30 972 H 3.8768 25.0116 -5.5023 0
M  V30 973 H 3.8770 10.6123 -5.5019 0
M  V30 974 H 3.8401 18.2144 0.1919 0
M  V30 975 H 16.7447 5.7866 0.1918 0
M  V30 976 H 3.8767 39.4109 -5.5026 0
M  V30 977 H 3.8633 -1.0063 0.1993 0
M  V30 978 H 3.8401 8.6147 0.1922 0
M  V30 979 H 3.8767 29.8114 -5.5024 0
M  V30 980 H 3.8769 15.4120 -5.5021 0
M  V30 981 H 4.1440 13.7066 -5.6452 0
M  V30 982 H 4.1441 18.5064 -5.6452 0
M  V30 983 H 4.1445 32.9056 -5.6446 0
M  V30 984 H 4.1353 29.5026 0.3383 0
M  V30 985 H 16.4492 23.2964 0.3379 0
M  V30 986 H 4.1361 42.5052 -5.6396 0
M  V30 987 H 4.1354 19.9030 0.3381 0
M  V30 988 H 16.4492 32.8962 0.3378 0
M  V30 989 H 16.4486 42.4986 0.3370 0
M  V30 990 H 4.1352 39.1022 0.3386 0
M  V30 991 H 4.1443 28.1059 -5.6449 0
M  V30 992 H 4.1439 8.9068 -5.6454 0
M  V30 993 H 4.1362 0.7014 0.3373 0
M  V30 994 H 4.1452 -0.6995 -5.6443 0
M  V30 995 H 4.1438 4.1070 -5.6454 0
M  V30 996 H 16.4493 13.6966 0.3381 0
M  V30 997 H 4.1442 23.3062 -5.6450 0
M  V30 998 H 4.1448 37.7051 -5.6442 0
M  V30 999 H 4.1356 10.3033 0.3379 0
M  V30 1000 H 16.4494 4.0969 0.3383 0
M  V30 1001 H 2.4127 12.3088 -5.5489 0
M  V30 1002 H 2.4128 26.7078 -5.5486 0
M  V30 1003 H 2.4043 41.1307 -5.5406 0
M  V30 1004 H 2.2746 21.5350 0.1321 0
M  V30 1005 H 18.3069 21.6688 0.1369 0
M  V30 1006 H 18.3078 40.8677 0.1361 0
M  V30 1007 H 2.2753 31.1341 0.1325 0
M  V30 1008 H 2.4121 31.5075 -5.5486 0
M  V30 1009 H 2.4129 36.3072 -5.5481 0
M  V30 1010 H 18.3073 31.2683 0.1366 0
M  V30 1011 H 2.2772 40.7324 0.1331 0
M  V30 1012 H 2.4138 7.5094 -5.5487 0
M  V30 1013 H 2.4131 17.1085 -5.5488 0
M  V30 1014 H 18.3067 12.0693 0.1370 0
M  V30 1015 H 2.2739 2.3359 0.1323 0
M  V30 1016 H 2.4123 21.9081 -5.5488 0
M  V30 1017 H 2.4124 2.7062 -5.5468 0
M  V30 1018 H 2.2881 -2.3616 -5.4454 0
M  V30 1019 H 18.3061 2.4699 0.1366 0
M  V30 1020 H 2.2740 11.9356 0.1320 0
M  V30 1021 H 1.5551 11.1711 -4.9375 0
M  V30 1022 H 1.5518 36.5067 -0.2925 0
M  V30 1023 H 1.5556 30.3710 -4.9377 0
M  V30 1024 H 19.0282 16.2906 -0.2852 0
M  V30 1025 H 1.5599 45.1250 -5.0227 0
M  V30 1026 H 1.5526 7.7078 -0.2918 0
M  V30 1027 H 19.0283 35.4903 -0.2854 0
M  V30 1028 H 1.5552 20.7711 -4.9377 0
M  V30 1029 H 1.5547 15.9707 -4.9393 0
M  V30 1030 H 1.5641 -1.8960 -0.2836 0
M  V30 1031 H 19.0281 25.8904 -0.2852 0
M  V30 1032 H 1.5518 26.9069 -0.2926 0
M  V30 1033 H 19.0186 45.0951 -0.2798 0
M  V30 1034 H 1.5520 17.3073 -0.2924 0
M  V30 1035 H 1.5551 39.9804 -4.9371 0
M  V30 1036 H 1.5559 35.1706 -4.9392 0
M  V30 1037 H 1.5550 25.5707 -4.9394 0
M  V30 1038 H 1.5550 6.3705 -4.9387 0
M  V30 1039 H 1.5582 1.5386 -4.9386 0
M  V30 1040 H 19.0286 6.6909 -0.2855 0
M  V30 1041 H 20.5319 11.6005 -0.8101 0
M  V30 1042 H 0.0494 31.5980 -0.8193 0
M  V30 1043 H 20.5317 40.4002 -0.8108 0
M  V30 1044 H 0.0297 11.9293 -4.6118 0
M  V30 1045 H 0.0316 40.7615 -4.6029 0
M  V30 1046 H 0.0295 16.7286 -4.6127 0
M  V30 1047 H 0.0308 35.9284 -4.6121 0
M  V30 1048 H 0.0510 2.7996 -0.8179 0
M  V30 1049 H 0.0328 2.3201 -4.6087 0
M  V30 1050 H 0.0492 -2.8264 -4.4941 0
M  V30 1051 H 20.5323 2.0010 -0.8112 0
M  V30 1052 H 0.0299 21.5293 -4.6119 0
M  V30 1053 H 0.0496 41.1974 -0.8189 0
M  V30 1054 H 20.5316 30.8002 -0.8102 0
M  V30 1055 H 0.0304 31.1291 -4.6117 0
M  V30 1056 H 0.0295 7.1286 -4.6122 0
M  V30 1057 H 0.0496 21.9984 -0.8194 0
M  V30 1058 H 20.5316 21.2002 -0.8101 0
M  V30 1059 H 0.0500 12.3988 -0.8191 0
M  V30 1060 H 0.0298 26.3285 -4.6127 0
M  V30 1061 H -0.6553 36.9867 -1.2466 0
M  V30 1062 H 21.2418 44.6137 -1.2462 0
M  V30 1063 H -0.8007 29.9756 -3.9538 0
M  V30 1064 H -0.6563 27.3882 -1.2475 0
M  V30 1065 H -0.6703 44.6388 -4.0514 0
M  V30 1066 H -0.7988 39.5781 -3.9541 0
M  V30 1067 H -0.7900 1.1542 -3.9580 0
M  V30 1068 H -0.6569 17.7891 -1.2477 0
M  V30 1069 H 21.2416 35.0148 -1.2439 0
M  V30 1070 H -0.8018 25.1774 -3.9492 0
M  V30 1071 H -0.8006 5.9792 -3.9489 0
M  V30 1072 H -0.7999 10.7773 -3.9540 0
M  V30 1073 H -0.8014 15.5781 -3.9493 0
M  V30 1074 H 21.2408 15.8157 -1.2433 0
M  V30 1075 H 21.2406 6.2160 -1.2435 0
M  V30 1076 H 21.2411 25.4153 -1.2435 0
M  V30 1077 H -0.6578 -1.4088 -1.2475 0
M  V30 1078 H -0.8004 20.3764 -3.9540 0
M  V30 1079 H -0.6575 8.1900 -1.2476 0
M  V30 1080 H -0.8020 34.7763 -3.9487 0
M  V30 1081 H 22.0027 13.4690 -1.5108 0
M  V30 1082 H -1.4502 -0.9656 -3.7833 0
M  V30 1083 H -1.4153 20.1306 -1.5132 0
M  V30 1084 H -1.4683 13.4352 -3.7780 0
M  V30 1085 H -1.4660 37.4301 -3.7821 0
M  V30 1086 H 22.0020 42.2669 -1.5120 0
M  V30 1087 H 22.0025 32.6679 -1.5109 0
M  V30 1088 H -1.4160 39.3263 -1.5128 0
M  V30 1089 H -1.4680 23.0331 -3.7782 0
M  V30 1090 H -1.4680 8.6382 -3.7821 0
M  V30 1091 H -1.4150 0.9353 -1.5120 0
M  V30 1092 H -1.4674 32.6306 -3.7781 0
M  V30 1093 H -1.4155 29.7290 -1.5132 0
M  V30 1094 H 22.0026 23.0684 -1.5108 0
M  V30 1095 H -1.4685 3.8387 -3.7766 0
M  V30 1096 H 22.0028 3.8702 -1.5114 0
M  V30 1097 H -1.4677 18.2357 -3.7827 0
M  V30 1098 H -1.4279 42.2738 -3.7882 0
M  V30 1099 H -1.4151 10.5322 -1.5128 0
M  V30 1100 H -1.4672 27.8335 -3.7827 0
M  V30 1101 N 5.6899 14.7401 -8.4381 0
M  V30 1102 N 5.6893 33.9430 -8.4379 0
M  V30 1103 N 14.9065 33.9327 3.1390 0
M  V30 1104 N 14.9070 14.7306 3.1392 0
M  V30 1105 N 5.6823 18.8667 3.1390 0
M  V30 1106 N 5.6899 19.5409 -8.4380 0
M  V30 1107 N 5.6815 38.0704 3.1389 0
M  V30 1108 N 5.6791 -0.3405 3.1447 0
M  V30 1109 N 5.6899 24.3416 -8.4379 0
M  V30 1110 N 5.6891 5.1374 -8.4391 0
M  V30 1111 N 14.9067 5.1291 3.1387 0
M  V30 1112 N 5.6874 0.3342 -8.4408 0
M  V30 1113 N 5.6897 9.9390 -8.4383 0
M  V30 1114 N 5.6884 38.7438 -8.4381 0
M  V30 1115 N 5.6855 43.5398 -8.4436 0
M  V30 1116 N 5.6820 28.4682 3.1391 0
M  V30 1117 N 14.9091 43.5388 3.1457 0
M  V30 1118 N 14.9070 24.3316 3.1394 0
M  V30 1119 N 5.6826 9.2655 3.1382 0
M  V30 1120 N 5.6897 29.1423 -8.4379 0
M  V30 1121 C 6.8608 29.0945 3.6911 0
M  V30 1122 C 6.8604 19.4955 3.6910 0
M  V30 1123 C 6.8582 38.1047 -8.9937 0
M  V30 1124 C 13.7195 14.1055 3.6929 0
M  V30 1125 C 13.7201 33.3039 3.6928 0
M  V30 1126 C 6.8619 38.6932 3.6917 0
M  V30 1127 C 6.8576 33.3053 -8.9932 0
M  V30 1128 C 6.8622 0.2987 3.6918 0
M  V30 1129 C 6.8598 42.9040 -8.9951 0
M  V30 1130 C 6.8572 23.7064 -8.9929 0
M  V30 1131 C 6.8587 4.5087 -8.9933 0
M  V30 1132 C 6.8579 9.3080 -8.9931 0
M  V30 1133 C 6.8573 18.9069 -8.9929 0
M  V30 1134 C 13.7197 23.7047 3.6928 0
M  V30 1135 C 13.7193 4.5066 3.6933 0
M  V30 1136 C 13.7194 42.9020 3.6931 0
M  V30 1137 C 6.8575 14.1074 -8.9930 0
M  V30 1138 C 6.8594 -0.2950 -8.9923 0
M  V30 1139 C 6.8603 9.8964 3.6912 0
M  V30 1140 C 6.8573 28.5059 -8.9930 0
M  V30 1141 C 8.0701 19.6572 -8.4755 0
M  V30 1142 C 8.0705 34.0570 -8.4766 0
M  V30 1143 C 12.5092 14.8626 3.1832 0
M  V30 1144 C 12.5099 34.0625 3.1830 0
M  V30 1145 C 12.5092 43.6617 3.1804 0
M  V30 1146 C 8.0715 28.3381 3.1780 0
M  V30 1147 C 8.0724 37.9377 3.1789 0
M  V30 1148 C 12.5089 5.2628 3.1835 0
M  V30 1149 C 8.0720 43.6605 -8.4816 0
M  V30 1150 C 8.0706 10.0575 -8.4757 0
M  V30 1151 C 8.0712 38.8568 -8.4776 0
M  V30 1152 C 8.0701 24.4572 -8.4757 0
M  V30 1153 C 8.0713 5.2578 -8.4761 0
M  V30 1154 C 12.5095 24.4625 3.1830 0
M  V30 1155 C 8.0703 14.8574 -8.4756 0
M  V30 1156 C 8.0711 18.7382 3.1779 0
M  V30 1157 C 8.0743 -0.4606 3.1759 0
M  V30 1158 C 8.0704 0.4592 -8.4767 0
M  V30 1159 C 8.0711 9.1383 3.1786 0
M  V30 1160 C 8.0702 29.2571 -8.4760 0
M  V30 1161 O 12.4356 16.0906 3.1869 0
M  V30 1162 O 12.4357 25.6915 3.1872 0
M  V30 1163 O 8.1700 27.1111 3.1921 0
M  V30 1164 O 8.1852 16.0822 -8.4930 0
M  V30 1165 O 12.4346 35.2923 3.1871 0
M  V30 1166 O 8.1684 36.7119 3.1910 0
M  V30 1167 O 8.1848 11.2819 -8.4928 0
M  V30 1168 O 8.1513 44.8911 -8.4878 0
M  V30 1169 O 8.1495 -1.6915 3.1891 0
M  V30 1170 O 8.1844 25.6831 -8.4928 0
M  V30 1171 O 12.4346 6.4898 3.1861 0
M  V30 1172 O 8.1850 20.8827 -8.4929 0
M  V30 1173 O 8.1767 40.0850 -8.4889 0
M  V30 1174 O 8.1807 35.2844 -8.4914 0
M  V30 1175 O 12.4495 44.8927 3.1871 0
M  V30 1176 O 8.1699 17.5103 3.1921 0
M  V30 1177 O 8.1835 6.4816 -8.4925 0
M  V30 1178 O 8.1685 7.9092 3.1911 0
M  V30 1179 O 8.1803 1.6818 -8.4924 0
M  V30 1180 O 8.1830 30.4837 -8.4923 0
M  V30 1181 C 13.7707 14.1194 5.2289 0
M  V30 1182 C 6.8088 33.3070 -10.5326 0
M  V30 1183 C 13.7708 33.3192 5.2289 0
M  V30 1184 C 6.8141 19.4807 5.2282 0
M  V30 1185 C 13.7707 23.7193 5.2289 0
M  V30 1186 C 6.8088 9.3074 -10.5325 0
M  V30 1187 C 6.8087 14.1074 -10.5325 0
M  V30 1188 C 6.8143 38.6803 5.2284 0
M  V30 1189 C 6.8087 23.7072 -10.5325 0
M  V30 1190 C 6.8087 18.9073 -10.5325 0
M  V30 1191 C 6.8090 4.5076 -10.5326 0
M  V30 1192 C 6.8141 9.8809 5.2283 0
M  V30 1193 C 6.8092 42.9067 -10.5335 0
M  V30 1194 C 6.8142 29.0806 5.2282 0
M  V30 1195 C 13.7707 4.5196 5.2291 0
M  V30 1196 C 6.8147 0.2817 5.2287 0
M  V30 1197 C 6.8088 38.1069 -10.5328 0
M  V30 1198 C 13.7703 42.9184 5.2292 0
M  V30 1199 C 6.8087 28.5071 -10.5325 0
M  V30 1200 C 6.8092 -0.2923 -10.5326 0
M  V30 1201 C 12.5742 13.4205 5.8733 0
M  V30 1202 C 8.0133 32.6011 -11.1740 0
M  V30 1203 C 8.0134 -0.9999 -11.1735 0
M  V30 1204 C 12.5742 23.0205 5.8733 0
M  V30 1205 C 8.0109 29.7793 5.8728 0
M  V30 1206 C 8.0109 20.1794 5.8728 0
M  V30 1207 C 8.0110 39.3793 5.8730 0
M  V30 1208 C 8.0135 42.2005 -11.1744 0
M  V30 1209 C 12.5742 32.6204 5.8733 0
M  V30 1210 C 8.0132 13.4013 -11.1739 0
M  V30 1211 C 12.5740 42.2201 5.8735 0
M  V30 1212 C 8.0132 18.2012 -11.1739 0
M  V30 1213 C 8.0112 0.9798 5.8732 0
M  V30 1214 C 8.0134 37.4010 -11.1741 0
M  V30 1215 C 8.0132 8.6013 -11.1739 0
M  V30 1216 C 8.0132 23.0012 -11.1739 0
M  V30 1217 C 8.0133 3.8013 -11.1740 0
M  V30 1218 C 12.5742 3.8206 5.8733 0
M  V30 1219 C 8.0109 10.5795 5.8729 0
M  V30 1220 C 8.0132 27.8012 -11.1739 0
M  V30 1221 C 8.0135 13.4373 -12.7034 0
M  V30 1222 C 12.6040 42.2674 7.3946 0
M  V30 1223 C 8.0135 18.2372 -12.7034 0
M  V30 1224 C 8.0139 32.6367 -12.7035 0
M  V30 1225 C 8.0146 -0.9630 -12.7038 0
M  V30 1226 C 8.0144 42.2368 -12.7041 0
M  V30 1227 C 7.9794 39.3310 7.3941 0
M  V30 1228 C 7.9791 29.7311 7.3939 0
M  V30 1229 C 8.0143 37.4365 -12.7036 0
M  V30 1230 C 8.0136 8.6375 -12.7035 0
M  V30 1231 C 12.6042 23.0679 7.3943 0
M  V30 1232 C 7.9799 0.9321 7.3944 0
M  V30 1233 C 8.0135 23.0371 -12.7034 0
M  V30 1234 C 7.9791 20.1314 7.3939 0
M  V30 1235 C 8.0139 3.8375 -12.7036 0
M  V30 1236 C 12.6041 32.6677 7.3943 0
M  V30 1237 C 12.6044 3.8684 7.3944 0
M  V30 1238 C 7.9793 10.5316 7.3940 0
M  V30 1239 C 12.6043 13.4682 7.3943 0
M  V30 1240 C 8.0137 27.8369 -12.7034 0
M  V30 1241 C 11.3704 12.8338 7.9037 0
M  V30 1242 C 9.2932 31.9662 -13.1977 0
M  V30 1243 C 9.2925 17.5683 -13.1974 0
M  V30 1244 C 9.2927 12.7691 -13.1975 0
M  V30 1245 C 11.3713 41.6300 7.9048 0
M  V30 1246 C 9.2098 30.3665 7.9032 0
M  V30 1247 C 9.2940 36.7658 -13.1982 0
M  V30 1248 C 11.3709 32.0310 7.9036 0
M  V30 1249 C 9.2108 39.9651 7.9042 0
M  V30 1250 C 9.2933 7.9700 -13.1978 0
M  V30 1251 C 9.2100 1.5705 7.9046 0
M  V30 1252 C 9.2925 22.3676 -13.1974 0
M  V30 1253 C 11.3705 22.4324 7.9035 0
M  V30 1254 C 9.2946 41.5688 -13.2008 0
M  V30 1255 C 9.2943 3.1707 -13.1984 0
M  V30 1256 C 11.3704 3.2350 7.9047 0
M  V30 1257 C 9.2094 20.7680 7.9030 0
M  V30 1258 C 9.2093 11.1695 7.9033 0
M  V30 1259 C 9.2927 27.1669 -13.1974 0
M  V30 1260 C 9.2947 -1.6320 -13.2008 0
M  V30 1261 N 11.4119 12.6966 9.3798 0 CHG=1
M  V30 1262 N 9.1759 20.9033 9.3798 0 CHG=1
M  V30 1263 N 9.1759 30.5037 9.3797 0 CHG=1
M  V30 1264 N 9.2438 12.6498 -14.6807 0 CHG=1
M  V30 1265 N 11.4120 22.2971 9.3799 0 CHG=1
M  V30 1266 N 9.2433 36.6510 -14.6802 0 CHG=1
M  V30 1267 N 9.1759 11.3027 9.3795 0 CHG=1
M  V30 1268 N 9.2437 7.8495 -14.6805 0 CHG=1
M  V30 1269 N 9.2439 22.2503 -14.6807 0 CHG=1
M  V30 1270 N 9.2433 3.0493 -14.6801 0 CHG=1
M  V30 1271 N 11.4118 3.0963 9.3791 0 CHG=1
M  V30 1272 N 9.2439 17.4501 -14.6807 0 CHG=1
M  V30 1273 N 9.2416 -1.7490 -14.6796 0 CHG=1
M  V30 1274 N 9.2437 31.8509 -14.6805 0 CHG=1
M  V30 1275 N 11.4118 41.4978 9.3788 0 CHG=1
M  V30 1276 N 9.2419 41.4492 -14.6804 0 CHG=1
M  V30 1277 N 11.4119 31.8976 9.3796 0 CHG=1
M  V30 1278 N 9.1755 1.7025 9.3786 0 CHG=1
M  V30 1279 N 9.1756 40.1040 9.3791 0 CHG=1
M  V30 1280 N 9.2439 27.0506 -14.6807 0 CHG=1
M  V30 1281 H 14.9795 15.7574 3.0964 0
M  V30 1282 H 5.5924 17.8433 3.0916 0
M  V30 1283 H 5.5708 34.9571 -8.3845 0
M  V30 1284 H 5.5743 1.3579 -8.3834 0
M  V30 1285 H 5.5738 39.7566 -8.3848 0
M  V30 1286 H 14.9808 34.9569 3.0962 0
M  V30 1287 H 5.5947 37.0428 3.0926 0
M  V30 1288 H 5.5698 10.9579 -8.3843 0
M  V30 1289 H 14.9801 44.5492 3.0856 0
M  V30 1290 H 5.5958 -1.3489 3.0832 0
M  V30 1291 H 5.5691 25.3576 -8.3842 0
M  V30 1292 H 5.5689 20.5577 -8.3842 0
M  V30 1293 H 5.5929 27.4431 3.0917 0
M  V30 1294 H 14.9797 25.3572 3.0962 0
M  V30 1295 H 5.5713 6.1579 -8.3842 0
M  V30 1296 H 14.9796 6.1576 3.0968 0
M  V30 1297 H 5.5692 15.7578 -8.3842 0
M  V30 1298 H 5.5926 44.5504 -8.3872 0
M  V30 1299 H 5.5927 8.2436 3.0923 0
M  V30 1300 H 5.5696 30.1574 -8.3843 0
M  V30 1301 H 13.6651 22.6750 3.3205 0
M  V30 1302 H 6.9079 32.2808 -8.6198 0
M  V30 1303 H 6.9198 20.5256 3.3202 0
M  V30 1304 H 13.6648 3.4764 3.3211 0
M  V30 1305 H 6.9084 8.2825 -8.6206 0
M  V30 1306 H 6.9083 13.0820 -8.6204 0
M  V30 1307 H 6.9200 30.1249 3.3205 0
M  V30 1308 H 6.9078 37.0806 -8.6197 0
M  V30 1309 H 13.6660 41.8736 3.3195 0
M  V30 1310 H 6.9203 39.7240 3.3210 0
M  V30 1311 H 6.9191 1.3270 3.3192 0
M  V30 1312 H 6.9081 22.6814 -8.6201 0
M  V30 1313 H 6.9085 3.4831 -8.6208 0
M  V30 1314 H 13.6649 13.0756 3.3207 0
M  V30 1315 H 6.9077 41.8809 -8.6194 0
M  V30 1316 H 6.9200 -1.3289 -8.6217 0
M  V30 1317 H 6.9082 17.8817 -8.6202 0
M  V30 1318 H 6.9197 10.9262 3.3200 0
M  V30 1319 H 13.6652 32.2745 3.3203 0
M  V30 1320 H 6.9080 27.4811 -8.6200 0
M  V30 1321 H 13.8369 15.1506 5.5883 0
M  V30 1322 H 6.7449 0.7433 -10.8904 0
M  V30 1323 H 6.7486 18.4495 5.5880 0
M  V30 1324 H 6.7449 19.9428 -10.8901 0
M  V30 1325 H 6.7463 43.9437 -10.8898 0
M  V30 1326 H 6.7486 28.0495 5.5881 0
M  V30 1327 H 6.7449 39.1427 -10.8899 0
M  V30 1328 H 13.8369 34.3505 5.5881 0
M  V30 1329 H 6.7486 37.6494 5.5883 0
M  V30 1330 H 6.7449 10.3429 -10.8902 0
M  V30 1331 H 6.7449 24.7428 -10.8900 0
M  V30 1332 H 13.8368 43.9499 5.5882 0
M  V30 1333 H 13.8369 24.7505 5.5882 0
M  V30 1334 H 6.7449 34.3428 -10.8900 0
M  V30 1335 H 13.8369 5.5507 5.5884 0
M  V30 1336 H 6.7449 15.1429 -10.8902 0
M  V30 1337 H 6.7487 -0.7499 5.5880 0
M  V30 1338 H 6.7449 5.5430 -10.8904 0
M  V30 1339 H 6.7486 8.8496 5.5879 0
M  V30 1340 H 6.7449 29.5428 -10.8900 0
M  V30 1341 H 14.7048 13.6568 5.5629 0
M  V30 1342 H 5.8790 8.8232 -10.8610 0
M  V30 1343 H 14.7048 42.4566 5.5631 0
M  V30 1344 H 5.8790 13.6232 -10.8611 0
M  V30 1345 H 14.7048 23.2568 5.5629 0
M  V30 1346 H 5.8789 37.6232 -10.8612 0
M  V30 1347 H 14.7049 32.8568 5.5630 0
M  V30 1348 H 5.8789 42.4232 -10.8612 0
M  V30 1349 H 5.8790 23.2232 -10.8612 0
M  V30 1350 H 5.8790 18.4232 -10.8611 0
M  V30 1351 H 5.8805 0.7434 5.5634 0
M  V30 1352 H 14.7048 4.0569 5.5628 0
M  V30 1353 H 5.8789 32.8232 -10.8612 0
M  V30 1354 H 5.8791 -0.7763 -10.8611 0
M  V30 1355 H 5.8791 4.0233 -10.8610 0
M  V30 1356 H 5.8806 39.1431 5.5631 0
M  V30 1357 H 5.8805 10.3432 5.5634 0
M  V30 1358 H 5.8806 19.9432 5.5633 0
M  V30 1359 H 5.8789 28.0232 -10.8612 0
M  V30 1360 H 5.8806 29.5432 5.5633 0
M  V30 1361 H 12.5220 12.3885 5.5333 0
M  V30 1362 H 8.0511 -2.0449 -10.8364 0
M  V30 1363 H 8.0522 31.5572 -10.8398 0
M  V30 1364 H 8.0522 12.3572 -10.8398 0
M  V30 1365 H 8.0523 36.3571 -10.8398 0
M  V30 1366 H 12.5220 31.5884 5.5333 0
M  V30 1367 H 8.0522 17.1572 -10.8398 0
M  V30 1368 H 8.0634 40.4114 5.5333 0
M  V30 1369 H 8.0523 41.1568 -10.8399 0
M  V30 1370 H 8.0635 2.0117 5.5333 0
M  V30 1371 H 8.0522 21.9572 -10.8398 0
M  V30 1372 H 12.5220 41.1883 5.5333 0
M  V30 1373 H 8.0634 30.8115 5.5332 0
M  V30 1374 H 12.5220 21.9885 5.5333 0
M  V30 1375 H 12.5220 2.7885 5.5333 0
M  V30 1376 H 8.0522 2.7573 -10.8399 0
M  V30 1377 H 8.0634 21.2115 5.5332 0
M  V30 1378 H 8.0522 7.5572 -10.8398 0
M  V30 1379 H 8.0634 11.6116 5.5332 0
M  V30 1380 H 8.0522 26.7572 -10.8398 0
M  V30 1381 H 11.6340 23.4708 5.5432 0
M  V30 1382 H 11.6340 42.6707 5.5433 0
M  V30 1383 H 8.9485 33.0660 -10.8437 0
M  V30 1384 H 8.9485 37.8659 -10.8437 0
M  V30 1385 H 8.9485 13.8660 -10.8436 0
M  V30 1386 H 8.9485 42.6655 -10.8437 0
M  V30 1387 H 11.6340 33.0708 5.5433 0
M  V30 1388 H 8.9485 9.0660 -10.8436 0
M  V30 1389 H 8.9514 38.9291 5.5432 0
M  V30 1390 H 8.9485 18.6660 -10.8436 0
M  V30 1391 H 8.9514 0.5293 5.5433 0
M  V30 1392 H 8.9485 23.4660 -10.8436 0
M  V30 1393 H 8.9485 4.2660 -10.8436 0
M  V30 1394 H 8.9514 29.3291 5.5432 0
M  V30 1395 H 8.9513 19.7291 5.5432 0
M  V30 1396 H 8.9485 -0.5340 -10.8438 0
M  V30 1397 H 11.6340 13.8708 5.5432 0
M  V30 1398 H 8.9513 10.1291 5.5432 0
M  V30 1399 H 11.6340 4.2708 5.5433 0
M  V30 1400 H 8.9485 28.2660 -10.8437 0
M  V30 1401 H 12.6172 14.4920 7.7554 0
M  V30 1402 H 7.9789 0.0766 -13.0588 0
M  V30 1403 H 7.9681 19.1078 7.7554 0
M  V30 1404 H 7.9787 14.4766 -13.0588 0
M  V30 1405 H 7.9787 9.6767 -13.0588 0
M  V30 1406 H 12.6167 43.2915 7.7556 0
M  V30 1407 H 7.9679 28.7076 7.7553 0
M  V30 1408 H 7.9791 38.4762 -13.0588 0
M  V30 1409 H 7.9794 43.2768 -13.0586 0
M  V30 1410 H 7.9678 38.3075 7.7553 0
M  V30 1411 H 12.6168 33.6917 7.7555 0
M  V30 1412 H 7.9788 19.2765 -13.0588 0
M  V30 1413 H 12.6170 24.0918 7.7554 0
M  V30 1414 H 7.9790 33.6762 -13.0588 0
M  V30 1415 H 7.9685 -0.0918 7.7555 0
M  V30 1416 H 7.9788 24.0764 -13.0588 0
M  V30 1417 H 12.6174 4.8922 7.7554 0
M  V30 1418 H 7.9786 4.8767 -13.0588 0
M  V30 1419 H 7.9683 9.5080 7.7554 0
M  V30 1420 H 7.9789 28.8764 -13.0588 0
M  V30 1421 H 13.4689 12.9563 7.8047 0
M  V30 1422 H 7.1234 -1.4644 -13.1039 0
M  V30 1423 H 7.1231 32.1353 -13.1037 0
M  V30 1424 H 7.1231 12.9353 -13.1038 0
M  V30 1425 H 13.4691 41.7564 7.8046 0
M  V30 1426 H 7.1233 36.9353 -13.1037 0
M  V30 1427 H 7.1156 30.2435 7.8046 0
M  V30 1428 H 7.1231 17.7353 -13.1038 0
M  V30 1429 H 7.1232 8.1353 -13.1038 0
M  V30 1430 H 7.1156 1.4434 7.8045 0
M  V30 1431 H 7.1155 20.6435 7.8046 0
M  V30 1432 H 7.1230 22.5353 -13.1037 0
M  V30 1433 H 7.1233 41.7352 -13.1038 0
M  V30 1434 H 7.1155 11.0434 7.8045 0
M  V30 1435 H 13.4688 3.3563 7.8048 0
M  V30 1436 H 13.4689 22.5563 7.8047 0
M  V30 1437 H 13.4690 32.1564 7.8046 0
M  V30 1438 H 7.1234 3.3353 -13.1038 0
M  V30 1439 H 7.1158 39.8436 7.8047 0
M  V30 1440 H 7.1231 27.3353 -13.1037 0
M  V30 1441 H 11.2997 11.8338 7.4772 0
M  V30 1442 H 9.2844 21.7671 7.4768 0
M  V30 1443 H 9.4230 30.9552 -12.7985 0
M  V30 1444 H 9.4227 11.7572 -12.7986 0
M  V30 1445 H 9.2844 31.3661 7.4769 0
M  V30 1446 H 9.4231 35.7550 -12.7986 0
M  V30 1447 H 11.2997 31.0320 7.4770 0
M  V30 1448 H 9.4227 16.5566 -12.7985 0
M  V30 1449 H 9.4230 40.5574 -12.7992 0
M  V30 1450 H 11.2998 40.6316 7.4771 0
M  V30 1451 H 9.2846 2.5684 7.4769 0
M  V30 1452 H 9.2846 40.9651 7.4772 0
M  V30 1453 H 11.2996 21.4328 7.4771 0
M  V30 1454 H 9.4226 -2.6435 -12.7998 0
M  V30 1455 H 9.4227 21.3562 -12.7985 0
M  V30 1456 H 11.2998 2.2348 7.4774 0
M  V30 1457 H 9.4228 6.9578 -12.7987 0
M  V30 1458 H 9.4229 2.1584 -12.7988 0
M  V30 1459 H 9.2844 12.1680 7.4767 0
M  V30 1460 H 9.4228 26.1557 -12.7985 0
M  V30 1461 H 10.1863 13.3496 -12.9459 0
M  V30 1462 H 10.4840 42.2252 7.6543 0
M  V30 1463 H 10.1859 32.5487 -12.9458 0
M  V30 1464 H 10.4827 13.4270 7.6542 0
M  V30 1465 H 10.0998 29.7742 7.6539 0
M  V30 1466 H 10.0993 20.1749 7.6538 0
M  V30 1467 H 10.4835 32.6258 7.6541 0
M  V30 1468 H 10.1862 37.3487 -12.9459 0
M  V30 1469 H 10.1860 18.1493 -12.9458 0
M  V30 1470 H 10.1005 39.3736 7.6541 0
M  V30 1471 H 10.0991 0.9758 7.6540 0
M  V30 1472 H 10.1859 22.9490 -12.9458 0
M  V30 1473 H 10.4825 3.8274 7.6543 0
M  V30 1474 H 10.1875 3.7505 -12.9461 0
M  V30 1475 H 10.1868 8.5500 -12.9460 0
M  V30 1476 H 10.1870 -1.0505 -12.9465 0
M  V30 1477 H 10.1872 42.1496 -12.9467 0
M  V30 1478 H 10.0990 10.5755 7.6538 0
M  V30 1479 H 10.4830 23.0264 7.6541 0
M  V30 1480 H 10.1858 27.7488 -12.9458 0
M  V30 1481 H 11.8837 13.4937 9.7982 0
M  V30 1482 H 8.7577 32.6494 -15.1023 0
M  V30 1483 H 11.8854 42.2891 9.8028 0
M  V30 1484 H 8.7581 13.4523 -15.0999 0
M  V30 1485 H 8.7595 37.4497 -15.1037 0
M  V30 1486 H 11.8860 32.6905 9.7999 0
M  V30 1487 H 8.7572 18.2514 -15.1001 0
M  V30 1488 H 8.7596 8.6534 -15.1002 0
M  V30 1489 H 8.6955 39.3080 9.7963 0
M  V30 1490 H 8.7663 42.2594 -15.1006 0
M  V30 1491 H 8.7569 23.0507 -15.1005 0
M  V30 1492 H 11.8826 3.8944 9.7993 0
M  V30 1493 H 8.6929 29.7094 9.7948 0
M  V30 1494 H 8.7625 -0.9475 -15.1057 0
M  V30 1495 H 8.7619 3.8544 -15.1013 0
M  V30 1496 H 8.6915 20.1111 9.7953 0
M  V30 1497 H 8.6932 0.9137 9.8006 0
M  V30 1498 H 8.6908 10.5129 9.7969 0
M  V30 1499 H 11.8847 23.0924 9.7987 0
M  V30 1500 H 8.7570 27.8500 -15.1012 0
M  V30 1501 H 10.4967 12.7914 9.8172 0
M  V30 1502 H 10.1790 -1.8173 -15.0976 0
M  V30 1503 H 10.1820 31.7813 -15.0947 0
M  V30 1504 H 10.4970 31.9860 9.8176 0
M  V30 1505 H 10.1818 17.3851 -15.0948 0
M  V30 1506 H 10.1805 41.3874 -15.0959 0
M  V30 1507 H 10.0851 20.8111 9.8210 0
M  V30 1508 H 10.1823 7.7883 -15.0953 0
M  V30 1509 H 10.0850 40.0068 9.8221 0
M  V30 1510 H 10.4982 41.5848 9.8200 0
M  V30 1511 H 10.1817 22.1837 -15.0947 0
M  V30 1512 H 10.4976 3.1929 9.8191 0
M  V30 1513 H 10.1821 36.5808 -15.0949 0
M  V30 1514 H 10.0852 30.4084 9.8211 0
M  V30 1515 H 10.1824 2.9894 -15.0958 0
M  V30 1516 H 10.1820 12.5867 -15.0950 0
M  V30 1517 H 10.0849 11.2138 9.8216 0
M  V30 1518 H 10.4966 22.3887 9.8169 0
M  V30 1519 H 10.1818 26.9824 -15.0947 0
M  V30 1520 H 10.0844 1.6151 9.8233 0
M  V30 1521 H 11.9448 11.8299 9.5965 0
M  V30 1522 H 8.6921 11.8158 -14.9100 0
M  V30 1523 H 8.6325 21.7685 9.5926 0
M  V30 1524 H 8.6947 31.0126 -14.9090 0
M  V30 1525 H 11.9440 21.4285 9.5954 0
M  V30 1526 H 8.7033 -2.5941 -14.9133 0
M  V30 1527 H 8.6322 31.3671 9.5938 0
M  V30 1528 H 8.6965 35.8116 -14.9099 0
M  V30 1529 H 11.9436 31.0274 9.5951 0
M  V30 1530 H 8.6922 16.6151 -14.9093 0
M  V30 1531 H 8.6339 40.9666 9.5971 0
M  V30 1532 H 8.6927 7.0164 -14.9114 0
M  V30 1533 H 8.6353 2.5710 9.5948 0
M  V30 1534 H 8.6926 21.4143 -14.9088 0
M  V30 1535 H 11.9434 40.6268 9.5967 0
M  V30 1536 H 11.9447 2.2308 9.5994 0
M  V30 1537 H 8.6963 40.6126 -14.9133 0
M  V30 1538 H 8.6946 2.2161 -14.9134 0
M  V30 1539 H 8.6335 12.1698 9.5926 0
M  V30 1540 H 8.6934 26.2135 -14.9087 0
M  V30 1541 N 9.1392 14.0928 -8.0847 0
M  V30 1542 N 11.4547 14.0966 2.7793 0
M  V30 1543 N 9.1382 33.2954 -8.0833 0
M  V30 1544 N 11.4543 33.2987 2.7799 0
M  V30 1545 N 9.1350 -0.3088 -8.0860 0
M  V30 1546 N 9.1381 29.1049 2.7874 0
M  V30 1547 N 9.1371 38.0962 -8.0818 0
M  V30 1548 N 9.1394 18.8934 -8.0851 0
M  V30 1549 N 9.1357 42.8988 -8.0782 0
M  V30 1550 N 9.1370 38.7060 2.7860 0
M  V30 1551 N 9.1389 9.2923 -8.0845 0
M  V30 1552 N 9.1417 0.2965 2.7686 0
M  V30 1553 N 11.4546 23.6976 2.7796 0
M  V30 1554 N 9.1392 23.6940 -8.0847 0
M  V30 1555 N 11.4549 4.4952 2.7789 0
M  V30 1556 N 9.1382 4.4918 -8.0836 0
M  V30 1557 N 9.1378 9.9025 2.7870 0
M  V30 1558 N 9.1383 19.5038 2.7877 0
M  V30 1559 N 11.4536 42.9015 2.7701 0
M  V30 1560 N 9.1389 28.4947 -8.0845 0
M  V30 1561 C 10.2792 14.7779 2.2468 0
M  V30 1562 C 10.3006 18.8222 2.2502 0
M  V30 1563 C 10.2909 33.9842 -7.5400 0
M  V30 1564 C 10.2792 24.3770 2.2466 0
M  V30 1565 C 10.3007 28.4213 2.2502 0
M  V30 1566 C 10.2886 0.3846 -7.5372 0
M  V30 1567 C 10.2915 38.7836 -7.5404 0
M  V30 1568 C 10.2898 19.5856 -7.5398 0
M  V30 1569 C 10.3013 38.0203 2.2502 0
M  V30 1570 C 10.2902 43.5879 -7.5407 0
M  V30 1571 C 10.2900 9.9865 -7.5399 0
M  V30 1572 C 10.3085 -0.3782 2.2610 0
M  V30 1573 C 10.2900 24.3852 -7.5397 0
M  V30 1574 C 10.2796 33.9760 2.2469 0
M  V30 1575 C 10.2795 5.1789 2.2471 0
M  V30 1576 C 10.2828 43.5811 2.2504 0
M  V30 1577 C 10.2904 5.1870 -7.5399 0
M  V30 1578 C 10.2899 14.7861 -7.5398 0
M  V30 1579 C 10.3006 9.2232 2.2501 0
M  V30 1580 C 10.2903 29.1847 -7.5399 0
M  V30 1581 C 9.0568 14.0286 2.7240 0
M  V30 1582 C 11.5256 33.2400 -8.0246 0
M  V30 1583 C 9.0566 33.2289 2.7249 0
M  V30 1584 C 9.0565 23.6287 2.7241 0
M  V30 1585 C 11.5226 -0.3622 -8.0220 0
M  V30 1586 C 11.5260 38.0398 -8.0252 0
M  V30 1587 C 11.5245 18.8403 -8.0241 0
M  V30 1588 C 11.5234 42.8387 -8.0259 0
M  V30 1589 C 11.5239 38.7708 2.7281 0
M  V30 1590 C 11.5240 9.2403 -8.0239 0
M  V30 1591 C 11.5272 0.3708 2.7365 0
M  V30 1592 C 11.5249 23.6403 -8.0242 0
M  V30 1593 C 11.5244 9.9701 2.7299 0
M  V30 1594 C 11.5240 19.5703 2.7293 0
M  V30 1595 C 9.0573 4.4283 2.7239 0
M  V30 1596 C 9.0588 42.8295 2.7288 0
M  V30 1597 C 11.5241 4.4403 -8.0235 0
M  V30 1598 C 11.5243 14.0403 -8.0239 0
M  V30 1599 C 11.5239 29.1705 2.7287 0
M  V30 1600 C 11.5251 28.4401 -8.0245 0
M  V30 1601 O 8.9887 12.7974 2.6777 0
M  V30 1602 O 11.6300 12.8121 -7.9696 0
M  V30 1603 O 11.6177 20.7988 2.6746 0
M  V30 1604 O 11.6296 32.0136 -7.9690 0
M  V30 1605 O 8.9883 22.3985 2.6782 0
M  V30 1606 O 11.6164 30.4000 2.6746 0
M  V30 1607 O 11.6125 -1.5926 -7.9709 0
M  V30 1608 O 11.6282 36.8139 -7.9682 0
M  V30 1609 O 8.9866 31.9997 2.6779 0
M  V30 1610 O 11.6307 17.6127 -7.9697 0
M  V30 1611 O 11.6136 40.0015 2.6744 0
M  V30 1612 O 11.6274 41.6141 -7.9667 0
M  V30 1613 O 8.9816 41.6030 2.6777 0
M  V30 1614 O 11.6288 8.0115 -7.9694 0
M  V30 1615 O 11.6181 1.5950 2.6744 0
M  V30 1616 O 11.6308 22.4131 -7.9696 0
M  V30 1617 O 8.9885 3.1960 2.6776 0
M  V30 1618 O 11.6268 3.2108 -7.9696 0
M  V30 1619 O 11.6179 11.1977 2.6741 0
M  V30 1620 O 11.6305 27.2134 -7.9694 0
M  V30 1621 C 10.2519 34.0130 0.7252 0
M  V30 1622 C 10.3434 18.7832 0.7329 0
M  V30 1623 C 10.3122 34.0536 -6.0138 0
M  V30 1624 C 10.3437 28.3827 0.7330 0
M  V30 1625 C 10.3124 38.8533 -6.0140 0
M  V30 1626 C 10.2526 5.2130 0.7244 0
M  V30 1627 C 10.2959 0.4295 -6.0013 0
M  V30 1628 C 10.3118 19.6545 -6.0138 0
M  V30 1629 C 10.3427 37.9821 0.7327 0
M  V30 1630 C 10.2528 24.4128 0.7245 0
M  V30 1631 C 10.3109 43.6599 -6.0115 0
M  V30 1632 C 10.3118 10.0551 -6.0138 0
M  V30 1633 C 10.3964 -0.4534 0.7330 0
M  V30 1634 C 10.2429 43.6299 0.7150 0
M  V30 1635 C 10.3119 24.4542 -6.0137 0
M  V30 1636 C 10.3119 5.2554 -6.0135 0
M  V30 1637 C 10.3424 9.1838 0.7325 0
M  V30 1638 C 10.3118 14.8548 -6.0137 0
M  V30 1639 C 10.2530 14.8127 0.7242 0
M  V30 1640 C 10.3120 29.2539 -6.0139 0
M  V30 1641 C 11.5443 14.5974 0.0662 0
M  V30 1642 C 9.0181 14.6682 -5.3381 0
M  V30 1643 C 9.0499 18.9903 0.0674 0
M  V30 1644 C 9.0179 33.8696 -5.3379 0
M  V30 1645 C 9.0498 28.5909 0.0676 0
M  V30 1646 C 9.0166 38.6710 -5.3381 0
M  V30 1647 C 8.9854 0.1522 -5.3178 0
M  V30 1648 C 11.5430 33.7996 0.0668 0
M  V30 1649 C 9.0181 19.4686 -5.3386 0
M  V30 1650 C 9.0484 38.1927 0.0678 0
M  V30 1651 C 8.9896 43.5464 -5.3425 0
M  V30 1652 C 9.0179 9.8678 -5.3389 0
M  V30 1653 C 9.0650 -0.1267 -0.0603 0
M  V30 1654 C 11.5440 24.1981 0.0666 0
M  V30 1655 C 9.0182 24.2689 -5.3380 0
M  V30 1656 C 11.5445 4.9977 0.0660 0
M  V30 1657 C 9.0173 5.0663 -5.3383 0
M  V30 1658 C 11.6375 43.5268 0.0371 0
M  V30 1659 C 9.0494 9.3904 0.0670 0
M  V30 1660 C 9.0180 29.0693 -5.3385 0
M  V30 1661 C 12.0241 13.3923 -0.2861 0
M  V30 1662 C 8.5826 20.2038 -0.2869 0
M  V30 1663 C 8.6297 32.6876 -4.9569 0
M  V30 1664 C 12.0231 22.9924 -0.2847 0
M  V30 1665 C 8.5339 -1.0964 -5.0063 0
M  V30 1666 C 8.6295 37.4880 -4.9574 0
M  V30 1667 C 12.0208 32.5930 -0.2837 0
M  V30 1668 C 12.0485 42.4924 -0.3483 0
M  V30 1669 C 8.6302 18.2866 -4.9573 0
M  V30 1670 C 8.5826 10.6036 -0.2861 0
M  V30 1671 C 8.6081 42.3272 -4.9681 0
M  V30 1672 C 8.6299 8.6859 -4.9574 0
M  V30 1673 C 8.7358 1.3305 -0.4781 0
M  V30 1674 C 8.5813 29.8039 -0.2878 0
M  V30 1675 C 8.6300 23.0869 -4.9569 0
M  V30 1676 C 12.0247 3.7932 -0.2873 0
M  V30 1677 C 8.5774 39.4042 -0.2879 0
M  V30 1678 C 8.6299 13.4863 -4.9570 0
M  V30 1679 C 8.6282 3.8827 -4.9585 0
M  V30 1680 C 8.6301 27.8872 -4.9573 0
M  V30 1681 C 12.4248 15.5895 -0.1420 0
M  V30 1682 C 8.0232 15.5411 -5.1068 0
M  V30 1683 C 8.1434 18.0003 -0.1393 0
M  V30 1684 C 8.0228 34.7423 -5.1064 0
M  V30 1685 C 12.4246 25.1891 -0.1425 0
M  V30 1686 C 12.2472 44.5659 -0.2603 0
M  V30 1687 C 8.1423 27.6002 -0.1386 0
M  V30 1688 C 8.0227 39.5468 -5.1050 0
M  V30 1689 C 12.4251 34.7898 -0.1428 0
M  V30 1690 C 8.0234 20.3416 -5.1070 0
M  V30 1691 C 8.1411 37.1993 -0.1369 0
M  V30 1692 C 8.1036 44.5617 -5.0739 0
M  V30 1693 C 8.0232 10.7409 -5.1073 0
M  V30 1694 C 8.2151 -1.2330 -0.2610 0
M  V30 1695 C 8.0232 25.1417 -5.1066 0
M  V30 1696 C 12.4261 5.9912 -0.1409 0
M  V30 1697 C 8.0226 5.9401 -5.1072 0
M  V30 1698 C 8.1451 8.4003 -0.1399 0
M  V30 1699 C 8.0288 1.0963 -5.0933 0
M  V30 1700 C 8.0232 29.9422 -5.1069 0
M  V30 1701 C 13.3011 22.8624 -0.8217 0
M  V30 1702 C 7.3508 13.3140 -4.4040 0
M  V30 1703 C 7.3506 32.5153 -4.4036 0
M  V30 1704 C 7.2944 29.9313 -0.8246 0
M  V30 1705 C 7.3512 37.3151 -4.4041 0
M  V30 1706 C 7.2629 -1.3143 -4.4502 0
M  V30 1707 C 7.3519 18.1136 -4.4042 0
M  V30 1708 C 7.2916 39.5337 -0.8248 0
M  V30 1709 C 7.3342 42.1661 -4.4236 0
M  V30 1710 C 13.3478 42.0824 -0.8349 0
M  V30 1711 C 7.3516 8.5129 -4.4046 0
M  V30 1712 C 7.3516 1.1542 -0.7212 0
M  V30 1713 C 7.3509 22.9146 -4.4037 0
M  V30 1714 C 13.3023 3.6594 -0.8225 0
M  V30 1715 C 7.2956 20.3311 -0.8241 0
M  V30 1716 C 7.3496 3.7094 -4.4062 0
M  V30 1717 C 7.2961 10.7312 -0.8236 0
M  V30 1718 C 13.3019 13.2613 -0.8222 0
M  V30 1719 C 13.2998 32.4638 -0.8216 0
M  V30 1720 C 7.3518 27.7142 -4.4040 0
M  V30 1721 C 13.7035 15.3258 -0.8171 0
M  V30 1722 C 6.8900 18.2744 -0.8138 0
M  V30 1723 C 6.7410 34.5706 -4.5386 0
M  V30 1724 C 13.7032 24.9264 -0.8166 0
M  V30 1725 C 13.7053 44.3473 -0.7909 0
M  V30 1726 C 6.7418 39.3747 -4.5395 0
M  V30 1727 C 6.7582 0.9272 -4.5308 0
M  V30 1728 C 6.7414 20.1696 -4.5408 0
M  V30 1729 C 6.8888 37.4780 -0.8134 0
M  V30 1730 C 6.8190 44.3517 -4.5177 0
M  V30 1731 C 6.7411 10.5690 -4.5409 0
M  V30 1732 C 6.8651 -1.1335 -0.7748 0
M  V30 1733 C 6.7413 24.9699 -4.5385 0
M  V30 1734 C 6.8898 27.8763 -0.8137 0
M  V30 1735 C 13.7036 5.7250 -0.8174 0
M  V30 1736 C 13.7026 34.5270 -0.8161 0
M  V30 1737 C 6.7407 5.7683 -4.5389 0
M  V30 1738 C 6.7413 15.3693 -4.5386 0
M  V30 1739 C 6.8899 8.6725 -0.8135 0
M  V30 1740 C 6.7413 29.7703 -4.5408 0
M  V30 1741 C 14.2167 14.1712 -1.1312 0
M  V30 1742 C 6.3651 14.1856 -4.1751 0
M  V30 1743 C 6.3650 33.3871 -4.1748 0
M  V30 1744 C 14.2160 23.7715 -1.1309 0
M  V30 1745 C 6.3790 9.8292 -1.1237 0
M  V30 1746 C 6.3768 29.0295 -1.1241 0
M  V30 1747 C 14.1465 43.1265 -1.0917 0
M  V30 1748 C 6.3654 18.9843 -4.1829 0
M  V30 1749 C 6.3919 -0.2960 -4.1785 0
M  V30 1750 C 6.3845 43.1101 -4.2169 0
M  V30 1751 C 6.3650 9.3835 -4.1832 0
M  V30 1752 C 6.4496 0.0679 -1.0589 0
M  V30 1753 C 6.3653 23.7863 -4.1749 0
M  V30 1754 C 6.3651 38.1875 -4.1833 0
M  V30 1755 C 14.2148 33.3718 -1.1306 0
M  V30 1756 C 14.2172 4.5705 -1.1313 0
M  V30 1757 C 6.3649 4.5837 -4.1760 0
M  V30 1758 C 6.3742 38.6304 -1.1245 0
M  V30 1759 C 6.3783 19.4293 -1.1238 0
M  V30 1760 C 6.3654 28.5850 -4.1828 0
M  V30 1761 H 11.5195 13.0738 2.7342 0
M  V30 1762 H 9.0383 13.0767 -8.0388 0
M  V30 1763 H 9.0514 20.5261 2.7311 0
M  V30 1764 H 9.0397 32.2762 -8.0398 0
M  V30 1765 H 11.5194 22.6736 2.7341 0
M  V30 1766 H 9.0519 30.1259 2.7311 0
M  V30 1767 H 9.0413 37.0761 -8.0406 0
M  V30 1768 H 11.5202 32.2733 2.7343 0
M  V30 1769 H 9.0380 17.8766 -8.0387 0
M  V30 1770 H 9.0539 39.7255 2.7317 0
M  V30 1771 H 9.0560 -1.3174 -8.0316 0
M  V30 1772 H 9.0434 41.8766 -8.0428 0
M  V30 1773 H 11.5208 41.8735 2.7335 0
M  V30 1774 H 9.0390 8.2769 -8.0388 0
M  V30 1775 H 9.0541 1.3261 2.7320 0
M  V30 1776 H 9.0382 22.6764 -8.0389 0
M  V30 1777 H 11.5201 3.4743 2.7346 0
M  V30 1778 H 9.0518 10.9264 2.7318 0
M  V30 1779 H 9.0407 3.4771 -8.0390 0
M  V30 1780 H 9.0386 27.4764 -8.0391 0
M  V30 1781 H 10.2636 15.7916 2.6563 0
M  V30 1782 H 10.2635 25.3910 2.6560 0
M  V30 1783 H 10.2634 34.9904 2.6558 0
M  V30 1784 H 10.3101 15.7958 -7.9585 0
M  V30 1785 H 10.3217 17.8080 2.6570 0
M  V30 1786 H 10.2632 44.6042 2.6585 0
M  V30 1787 H 10.3104 34.9946 -7.9580 0
M  V30 1788 H 10.3216 27.4074 2.6573 0
M  V30 1789 H 10.3105 39.7942 -7.9580 0
M  V30 1790 H 10.3102 20.5955 -7.9583 0
M  V30 1791 H 10.3215 37.0069 2.6576 0
M  V30 1792 H 10.3098 1.3955 -7.9569 0
M  V30 1793 H 10.3199 44.6054 -7.9565 0
M  V30 1794 H 10.3100 10.9960 -7.9587 0
M  V30 1795 H 10.3232 -1.4030 2.6600 0
M  V30 1796 H 10.3103 25.3952 -7.9582 0
M  V30 1797 H 10.2639 6.1923 2.6567 0
M  V30 1798 H 10.3219 8.2086 2.6567 0
M  V30 1799 H 10.3099 6.1963 -7.9589 0
M  V30 1800 H 10.3103 30.1949 -7.9581 0
M  V30 1801 H 9.8721 15.7721 0.3849 0
M  V30 1802 H 10.7165 17.8249 0.3871 0
M  V30 1803 H 10.7292 35.0007 -5.6808 0
M  V30 1804 H 9.8723 25.3719 0.3850 0
M  V30 1805 H 10.7168 27.4246 0.3869 0
M  V30 1806 H 10.7291 39.8006 -5.6809 0
M  V30 1807 H 9.8722 34.9718 0.3853 0
M  V30 1808 H 10.7292 20.6012 -5.6807 0
M  V30 1809 H 10.7169 37.0246 0.3867 0
M  V30 1810 H 10.7165 1.3917 -5.6757 0
M  V30 1811 H 10.7317 44.6047 -5.6824 0
M  V30 1812 H 10.7293 11.0015 -5.6805 0
M  V30 1813 H 10.7829 -1.4307 0.4436 0
M  V30 1814 H 9.8280 44.6120 0.4105 0
M  V30 1815 H 10.7292 25.4010 -5.6807 0
M  V30 1816 H 9.8716 6.1725 0.3850 0
M  V30 1817 H 10.7162 8.2254 0.3872 0
M  V30 1818 H 10.7293 15.8014 -5.6806 0
M  V30 1819 H 10.7294 6.2017 -5.6804 0
M  V30 1820 H 10.7292 30.2009 -5.6808 0
M  V30 1821 H 11.0254 19.5291 0.3304 0
M  V30 1822 H 10.9984 14.0906 -5.6249 0
M  V30 1823 H 10.9988 33.2901 -5.6245 0
M  V30 1824 H 9.5632 23.6645 0.3267 0
M  V30 1825 H 11.0255 29.1289 0.3306 0
M  V30 1826 H 10.9988 38.0898 -5.6245 0
M  V30 1827 H 10.9984 18.8905 -5.6249 0
M  V30 1828 H 9.5630 33.2647 0.3268 0
M  V30 1829 H 10.9936 42.8889 -5.6206 0
M  V30 1830 H 10.9998 -0.3173 -5.6225 0
M  V30 1831 H 10.9983 9.2907 -5.6251 0
M  V30 1832 H 11.0459 0.3181 0.3309 0
M  V30 1833 H 10.9985 23.6904 -5.6248 0
M  V30 1834 H 9.5571 42.8775 0.3327 0
M  V30 1835 H 9.5631 4.4653 0.3277 0
M  V30 1836 H 11.0250 9.9297 0.3302 0
M  V30 1837 H 10.9983 4.4908 -5.6250 0
M  V30 1838 H 9.5632 14.0647 0.3270 0
M  V30 1839 H 11.0252 38.7293 0.3307 0
M  V30 1840 H 10.9985 28.4903 -5.6248 0
M  V30 1841 H 11.4802 12.5007 -0.0929 0
M  V30 1842 H 9.3652 12.7313 -5.1523 0
M  V30 1843 H 9.0992 21.1036 -0.0863 0
M  V30 1844 H 9.3647 31.9303 -5.1522 0
M  V30 1845 H 11.4815 22.0981 -0.0924 0
M  V30 1846 H 9.0982 30.7022 -0.0871 0
M  V30 1847 H 9.3648 36.7304 -5.1518 0
M  V30 1848 H 11.4826 31.6963 -0.0910 0
M  V30 1849 H 9.3650 17.5310 -5.1519 0
M  V30 1850 H 9.0968 40.3003 -0.0888 0
M  V30 1851 H 9.3539 41.5491 -5.1518 0
M  V30 1852 H 9.1477 -1.9419 -5.2312 0
M  V30 1853 H 11.5280 41.3250 -0.1182 0
M  V30 1854 H 9.3656 7.9318 -5.1519 0
M  V30 1855 H 9.6577 1.5476 0.1928 0
M  V30 1856 H 9.3648 22.3307 -5.1522 0
M  V30 1857 H 11.4784 2.9068 -0.0941 0
M  V30 1858 H 9.1000 11.5048 -0.0856 0
M  V30 1859 H 9.3647 3.1299 -5.1526 0
M  V30 1860 H 9.3647 27.1306 -5.1519 0
M  V30 1861 H 12.0370 16.5546 0.1418 0
M  V30 1862 H 8.5453 17.0434 0.1449 0
M  V30 1863 H 8.1987 35.6525 -5.5400 0
M  V30 1864 H 12.1320 45.5375 0.0180 0
M  V30 1865 H 8.2072 2.0247 -5.5269 0
M  V30 1866 H 8.5455 26.6430 0.1451 0
M  V30 1867 H 8.2005 40.4576 -5.5366 0
M  V30 1868 H 8.1978 21.2530 -5.5396 0
M  V30 1869 H 8.4122 45.5574 -5.3094 0
M  V30 1870 H 12.0374 35.7539 0.1420 0
M  V30 1871 H 8.1980 11.6531 -5.5391 0
M  V30 1872 H 8.4457 -2.3404 0.0222 0
M  V30 1873 H 8.1977 26.0528 -5.5396 0
M  V30 1874 H 12.0372 6.9555 0.1421 0
M  V30 1875 H 8.5459 36.2423 0.1449 0
M  V30 1876 H 8.5452 7.4438 0.1447 0
M  V30 1877 H 12.0371 26.1541 0.1417 0
M  V30 1878 H 8.1975 16.4530 -5.5393 0
M  V30 1879 H 8.1981 6.8531 -5.5386 0
M  V30 1880 H 8.1984 30.8528 -5.5399 0
M  V30 1881 H 13.7280 12.3494 -0.9578 0
M  V30 1882 H 6.8614 21.2420 -0.9621 0
M  V30 1883 H 13.7296 41.1903 -0.9672 0
M  V30 1884 H 7.1055 31.6020 -4.0219 0
M  V30 1885 H 6.8605 30.8422 -0.9619 0
M  V30 1886 H 7.1063 36.4023 -4.0202 0
M  V30 1887 H 13.7250 31.5506 -0.9591 0
M  V30 1888 H 7.1050 17.2027 -4.0196 0
M  V30 1889 H 6.8594 40.4471 -0.9638 0
M  V30 1890 H 7.0991 41.2341 -4.0303 0
M  V30 1891 H 6.9149 -2.3021 -4.2329 0
M  V30 1892 H 7.1055 7.6028 -4.0189 0
M  V30 1893 H 6.8439 2.0069 -0.9637 0
M  V30 1894 H 13.7264 21.9498 -0.9585 0
M  V30 1895 H 7.1050 22.0022 -4.0216 0
M  V30 1896 H 13.7287 2.7461 -0.9605 0
M  V30 1897 H 6.8621 11.6422 -0.9621 0
M  V30 1898 H 7.1050 12.4023 -4.0211 0
M  V30 1899 H 7.1057 2.7968 -4.0233 0
M  V30 1900 H 7.1053 26.8026 -4.0199 0
M  V30 1901 H 14.4262 16.0246 -1.2039 0
M  V30 1902 H 6.1585 27.1790 -1.2011 0
M  V30 1903 H 5.9601 35.2976 -4.3631 0
M  V30 1904 H 14.4267 25.6243 -1.2039 0
M  V30 1905 H 14.4273 35.2238 -1.2037 0
M  V30 1906 H 6.1595 36.7782 -1.2014 0
M  V30 1907 H 5.9602 20.8984 -4.3648 0
M  V30 1908 H 6.1795 45.1809 -4.2991 0
M  V30 1909 H 6.1576 17.5795 -1.2010 0
M  V30 1910 H 14.3612 45.1899 -0.9916 0
M  V30 1911 H 5.9726 1.6812 -4.3629 0
M  V30 1912 H 5.9607 11.2992 -4.3647 0
M  V30 1913 H 6.2082 -1.9677 -0.9853 0
M  V30 1914 H 5.9626 40.1003 -4.3635 0
M  V30 1915 H 5.9600 25.6982 -4.3633 0
M  V30 1916 H 14.4258 6.4248 -1.2039 0
M  V30 1917 H 6.1570 7.9797 -1.2008 0
M  V30 1918 H 5.9603 16.0989 -4.3634 0
M  V30 1919 H 5.9611 6.5000 -4.3631 0
M  V30 1920 H 5.9601 30.4978 -4.3647 0
M  V30 1921 H 15.1901 14.0310 -1.5652 0
M  V30 1922 H 5.4008 14.0237 -3.7412 0
M  V30 1923 H 5.3970 19.5735 -1.5512 0
M  V30 1924 H 5.4014 33.2202 -3.7414 0
M  V30 1925 H 15.1892 23.6295 -1.5648 0
M  V30 1926 H 5.3958 29.1716 -1.5518 0
M  V30 1927 H 5.4017 38.0146 -3.7516 0
M  V30 1928 H 15.1884 33.2282 -1.5642 0
M  V30 1929 H 5.4004 18.8184 -3.7519 0
M  V30 1930 H 5.3942 38.7693 -1.5530 0
M  V30 1931 H 5.4285 42.8697 -3.7554 0
M  V30 1932 H 15.1383 42.8758 -1.5396 0
M  V30 1933 H 5.4083 -0.3818 -3.7582 0
M  V30 1934 H 5.4003 9.2201 -3.7513 0
M  V30 1935 H 5.4329 0.3318 -1.5162 0
M  V30 1936 H 5.4010 23.6221 -3.7415 0
M  V30 1937 H 15.1908 4.4327 -1.5657 0
M  V30 1938 H 5.3978 9.9755 -1.5508 0
M  V30 1939 H 5.4011 4.4256 -3.7400 0
M  V30 1940 H 5.4007 28.4168 -3.7520 0
M  V30 1941 N 8.0543 33.9830 3.2450 0
M  V30 1942 N 12.5383 18.8170 3.2359 0
M  V30 1943 N 8.0552 24.3816 3.2463 0
M  V30 1944 N 8.0553 14.7804 3.2463 0
M  V30 1945 N 12.5406 33.9923 -8.5343 0
M  V30 1946 N 12.5380 28.4181 3.2364 0
M  V30 1947 N 12.5406 38.7926 -8.5336 0
M  V30 1948 N 12.5409 19.5911 -8.5346 0
M  V30 1949 N 12.5374 38.0194 3.2368 0
M  V30 1950 N 12.5400 43.5940 -8.5298 0
M  V30 1951 N 12.5405 0.3876 -8.5346 0
M  V30 1952 N 12.5407 9.9900 -8.5346 0
M  V30 1953 N 12.5396 -0.3898 3.2339 0
M  V30 1954 N 12.5409 24.3915 -8.5347 0
M  V30 1955 N 8.0546 5.1791 3.2453 0
M  V30 1956 N 12.5385 9.2160 3.2354 0
M  V30 1957 N 8.0518 43.5897 3.2407 0
M  V30 1958 N 12.5408 14.7905 -8.5347 0
M  V30 1959 N 12.5404 5.1893 -8.5349 0
M  V30 1960 N 12.5408 29.1919 -8.5344 0
M  V30 1961 C 6.8427 14.0987 3.7053 0
M  V30 1962 C 13.7377 19.5022 3.7065 0
M  V30 1963 C 13.7321 33.2985 -9.0107 0
M  V30 1964 C 6.8429 23.6977 3.7051 0
M  V30 1965 C 13.7327 38.0981 -9.0111 0
M  V30 1966 C 6.8434 33.2967 3.7054 0
M  V30 1967 C 13.7316 18.8994 -9.0102 0
M  V30 1968 C 13.7386 38.7004 3.7067 0
M  V30 1969 C 13.7330 42.8969 -9.0095 0
M  V30 1970 C 13.7321 -0.3025 -9.0090 0
M  V30 1971 C 13.7321 9.3001 -9.0105 0
M  V30 1972 C 13.7380 0.3044 3.7066 0
M  V30 1973 C 13.7316 23.6991 -9.0103 0
M  V30 1974 C 13.7380 29.1015 3.7065 0
M  V30 1975 C 6.8429 4.4999 3.7056 0
M  V30 1976 C 6.8443 42.8951 3.7054 0
M  V30 1977 C 13.7376 9.9030 3.7067 0
M  V30 1978 C 13.7318 14.0998 -9.0103 0
M  V30 1979 C 13.7325 4.5006 -9.0107 0
M  V30 1980 C 13.7317 28.4988 -9.0104 0
M  V30 1981 C 14.9392 29.3029 -8.5730 0
M  V30 1982 C 14.9407 18.6872 3.2784 0
M  V30 1983 C 14.9390 14.9033 -8.5722 0
M  V30 1984 C 14.9396 34.1028 -8.5737 0
M  V30 1985 C 14.9403 38.9028 -8.5750 0
M  V30 1986 C 5.6419 34.1139 3.2779 0
M  V30 1987 C 14.9389 19.7031 -8.5723 0
M  V30 1988 C 14.9387 43.7108 -8.5789 0
M  V30 1989 C 14.9415 37.8868 3.2784 0
M  V30 1990 C 14.9378 0.5048 -8.5725 0
M  V30 1991 C 14.9392 10.1033 -8.5725 0
M  V30 1992 C 14.9405 -0.5122 3.2787 0
M  V30 1993 C 14.9389 24.5031 -8.5725 0
M  V30 1994 C 5.6415 24.5139 3.2774 0
M  V30 1995 C 5.6411 5.3138 3.2776 0
M  V30 1996 C 5.6431 43.7130 3.2780 0
M  V30 1997 C 14.9407 9.0872 3.2789 0
M  V30 1998 C 5.6412 14.9139 3.2774 0
M  V30 1999 C 14.9409 28.2871 3.2783 0
M  V30 2000 C 14.9397 5.3035 -8.5728 0
M  V30 2001 O 15.0299 30.5242 -8.6800 0
M  V30 2002 O 5.5931 16.1366 3.4103 0
M  V30 2003 O 15.0314 16.1233 -8.6809 0
M  V30 2004 O 15.0110 17.4634 3.4031 0
M  V30 2005 O 15.0281 35.3247 -8.6791 0
M  V30 2006 O 5.5933 25.7377 3.4102 0
M  V30 2007 O 15.0110 27.0641 3.4034 0
M  V30 2008 O 15.0254 40.1256 -8.6782 0
M  V30 2009 O 5.5921 35.3391 3.4089 0
M  V30 2010 O 15.0314 20.9235 -8.6809 0
M  V30 2011 O 15.0099 36.6647 3.4035 0
M  V30 2012 O 15.0070 44.9351 -8.7088 0
M  V30 2013 O 5.5981 44.9389 3.4111 0
M  V30 2014 O 15.0277 1.7233 -8.6801 0
M  V30 2015 O 15.0309 11.3231 -8.6806 0
M  V30 2016 O 14.9996 -1.7375 3.4065 0
M  V30 2017 O 15.0310 25.7238 -8.6807 0
M  V30 2018 O 5.5916 6.5355 3.4093 0
M  V30 2019 O 15.0102 7.8623 3.4024 0
M  V30 2020 O 15.0299 6.5230 -8.6801 0
M  V30 2021 C 13.6928 4.3302 -10.5406 0
M  V30 2022 C 6.8848 13.9423 5.2360 0
M  V30 2023 C 6.8851 33.1420 5.2360 0
M  V30 2024 C 13.6927 13.9300 -10.5405 0
M  V30 2025 C 13.6925 33.1298 -10.5406 0
M  V30 2026 C 13.6993 19.6578 5.2365 0
M  V30 2027 C 13.6994 29.2577 5.2365 0
M  V30 2028 C 13.6925 37.9298 -10.5407 0
M  V30 2029 C 13.6995 38.8575 5.2365 0
M  V30 2030 C 13.6927 18.7299 -10.5405 0
M  V30 2031 C 13.6921 42.7295 -10.5402 0
M  V30 2032 C 6.8849 23.5421 5.2359 0
M  V30 2033 C 13.6927 9.1301 -10.5405 0
M  V30 2034 C 13.6989 0.4585 5.2365 0
M  V30 2035 C 13.6930 -0.4696 -10.5401 0
M  V30 2036 C 6.8856 42.7414 5.2361 0
M  V30 2037 C 13.6926 23.5299 -10.5405 0
M  V30 2038 C 13.6926 28.3298 -10.5405 0
M  V30 2039 C 6.8848 4.3426 5.2361 0
M  V30 2040 C 13.6991 10.0580 5.2365 0
M  V30 2041 C 5.6924 41.9989 5.8570 0
M  V30 2042 C 14.8929 1.2013 5.8560 0
M  V30 2043 C 14.8928 8.3853 -11.1595 0
M  V30 2044 C 14.8938 -1.2196 -11.1537 0
M  V30 2045 C 14.8926 22.7848 -11.1596 0
M  V30 2046 C 5.6916 3.6009 5.8572 0
M  V30 2047 C 14.8934 10.8008 5.8565 0
M  V30 2048 C 14.8925 27.5848 -11.1596 0
M  V30 2049 C 14.8929 3.5856 -11.1594 0
M  V30 2050 C 5.6918 13.2005 5.8576 0
M  V30 2051 C 14.8936 20.4005 5.8566 0
M  V30 2052 C 14.8928 13.1851 -11.1596 0
M  V30 2053 C 5.6921 32.3998 5.8576 0
M  V30 2054 C 14.8924 32.3848 -11.1596 0
M  V30 2055 C 5.6920 22.8002 5.8577 0
M  V30 2056 C 14.8937 30.0001 5.8566 0
M  V30 2057 C 14.8923 37.1849 -11.1595 0
M  V30 2058 C 14.8938 39.5997 5.8564 0
M  V30 2059 C 14.8927 17.9849 -11.1596 0
M  V30 2060 C 14.8914 41.9834 -11.1588 0
M  V30 2061 C 14.9435 27.4215 -12.6888 0
M  V30 2062 C 5.6439 13.0652 7.3845 0
M  V30 2063 C 5.6493 41.8536 7.3833 0
M  V30 2064 C 14.9451 13.0240 -12.6887 0
M  V30 2065 C 14.9407 20.5443 7.3842 0
M  V30 2066 C 14.9431 32.2215 -12.6889 0
M  V30 2067 C 5.6456 22.6627 7.3844 0
M  V30 2068 C 14.9426 37.0215 -12.6891 0
M  V30 2069 C 14.9413 30.1417 7.3839 0
M  V30 2070 C 14.9429 39.7381 7.3839 0
M  V30 2071 C 14.9379 41.8131 -12.6865 0
M  V30 2072 C 14.9367 1.3502 7.3825 0
M  V30 2073 C 14.9456 8.2255 -12.6888 0
M  V30 2074 C 14.9495 -1.3649 -12.6873 0
M  V30 2075 C 14.9445 17.8228 -12.6887 0
M  V30 2076 C 14.9440 22.6220 -12.6887 0
M  V30 2077 C 5.6473 32.2597 7.3842 0
M  V30 2078 C 14.9463 3.4280 -12.6889 0
M  V30 2079 C 5.6417 3.4679 7.3848 0
M  V30 2080 C 14.9394 10.9462 7.3841 0
M  V30 2081 O 13.9856 27.8933 -13.3643 0
M  V30 2082 O 13.9795 3.8822 -13.3622 0
M  V30 2083 O 6.6571 13.4742 8.0504 0
M  V30 2084 O 13.9451 20.1160 8.0534 0
M  V30 2085 O 13.9846 13.4875 -13.3650 0
M  V30 2086 O 13.9840 32.6946 -13.3627 0
M  V30 2087 O 6.6560 23.0801 8.0502 0
M  V30 2088 O 13.9433 29.7209 8.0536 0
M  V30 2089 O 13.9820 37.4970 -13.3600 0
M  V30 2090 O 6.6542 32.6868 8.0487 0
M  V30 2091 O 13.9405 39.3268 8.0520 0
M  V30 2092 O 13.9857 18.2897 -13.3653 0
M  V30 2093 O 13.9919 42.3176 -13.3562 0
M  V30 2094 O 6.6481 42.2939 8.0456 0
M  V30 2095 O 13.9483 0.9050 8.0483 0
M  V30 2096 O 13.9826 8.6851 -13.3641 0
M  V30 2097 O 13.9761 -0.9274 -13.3595 0
M  V30 2098 O 13.9861 23.0916 -13.3651 0
M  V30 2099 O 6.6574 3.8680 8.0493 0
M  V30 2100 O 13.9457 10.5107 8.0518 0
M  V30 2101 O 16.0055 26.8518 -13.1126 0 CHG=-1
M  V30 2102 O 15.9995 2.8409 -13.1095 0 CHG=-1
M  V30 2103 O 4.6648 12.4357 7.8472 0 CHG=-1
M  V30 2104 O 15.9416 21.1527 7.8342 0 CHG=-1
M  V30 2105 O 16.0042 12.4470 -13.1114 0 CHG=-1
M  V30 2106 O 16.0045 31.6523 -13.1128 0 CHG=-1
M  V30 2107 O 15.9387 30.7581 7.8320 0 CHG=-1
M  V30 2108 O 16.0024 36.4523 -13.1129 0 CHG=-1
M  V30 2109 O 15.9358 40.3650 7.8285 0 CHG=-1
M  V30 2110 O 4.6484 41.2651 7.8458 0 CHG=-1
M  V30 2111 O 16.0013 41.2619 -13.1135 0 CHG=-1
M  V30 2112 O 16.0052 17.2489 -13.1119 0 CHG=-1
M  V30 2113 O 15.9498 1.9357 7.8299 0 CHG=-1
M  V30 2114 O 16.0026 7.6448 -13.1107 0 CHG=-1
M  V30 2115 O 15.9864 -1.9778 -13.1084 0 CHG=-1
M  V30 2116 O 16.0056 22.0505 -13.1123 0 CHG=-1
M  V30 2117 O 4.6648 2.8273 7.8397 0 CHG=-1
M  V30 2118 O 4.6635 22.0422 7.8503 0 CHG=-1
M  V30 2119 O 15.9444 11.5453 7.8348 0 CHG=-1
M  V30 2120 O 4.6604 31.6496 7.8512 0 CHG=-1
M  V30 2121 H 12.4530 30.2112 -8.5705 0
M  V30 2122 H 8.1041 15.8108 3.2691 0
M  V30 2123 H 12.4668 17.7900 3.2732 0
M  V30 2124 H 12.4524 15.8115 -8.5699 0
M  V30 2125 H 12.4541 35.0111 -8.5710 0
M  V30 2126 H 8.1044 25.4105 3.2691 0
M  V30 2127 H 12.4673 27.3897 3.2729 0
M  V30 2128 H 8.1086 44.6035 3.2756 0
M  V30 2129 H 12.4550 39.8107 -8.5720 0
M  V30 2130 H 8.1058 35.0101 3.2699 0
M  V30 2131 H 12.4687 36.9895 3.2729 0
M  V30 2132 H 12.4522 20.6114 -8.5700 0
M  V30 2133 H 12.4644 44.6049 -8.5817 0
M  V30 2134 H 12.4675 -1.4033 3.2790 0
M  V30 2135 H 12.4529 11.0116 -8.5701 0
M  V30 2136 H 12.4549 1.4115 -8.5697 0
M  V30 2137 H 12.4524 25.4113 -8.5701 0
M  V30 2138 H 12.4539 6.2117 -8.5701 0
M  V30 2139 H 8.1047 6.2110 3.2697 0
M  V30 2140 H 12.4669 8.1903 3.2738 0
M  V30 2141 H 13.7704 27.5263 -8.5127 0
M  V30 2142 H 6.8021 13.1187 3.2146 0
M  V30 2143 H 13.7831 20.4819 3.2153 0
M  V30 2144 H 13.7705 13.1269 -8.5130 0
M  V30 2145 H 13.7704 32.3262 -8.5126 0
M  V30 2146 H 13.7834 39.6808 3.2158 0
M  V30 2147 H 6.8023 22.7181 3.2143 0
M  V30 2148 H 13.7705 17.9266 -8.5129 0
M  V30 2149 H 13.7832 30.0815 3.2155 0
M  V30 2150 H 13.7704 37.1261 -8.5126 0
M  V30 2151 H 6.8032 41.9166 3.2136 0
M  V30 2152 H 13.7706 41.9255 -8.5117 0
M  V30 2153 H 6.8024 32.3174 3.2141 0
M  V30 2154 H 13.7822 1.2831 3.2145 0
M  V30 2155 H 13.7706 8.3271 -8.5131 0
M  V30 2156 H 13.7823 -1.2859 -8.5180 0
M  V30 2157 H 13.7704 22.7264 -8.5128 0
M  V30 2158 H 13.7707 3.5275 -8.5133 0
M  V30 2159 H 6.8019 3.5196 3.2152 0
M  V30 2160 H 13.7830 10.8824 3.2151 0
M  V30 2161 H 13.6090 29.3237 -10.9978 0
M  V30 2162 H 13.6090 5.3238 -10.9980 0
M  V30 2163 H 6.9726 14.9309 5.6960 0
M  V30 2164 H 13.6128 18.6692 5.6961 0
M  V30 2165 H 13.6091 14.9238 -10.9979 0
M  V30 2166 H 13.6090 34.1238 -10.9977 0
M  V30 2167 H 6.9726 24.5308 5.6959 0
M  V30 2168 H 13.6128 28.2691 5.6962 0
M  V30 2169 H 13.6090 38.9238 -10.9977 0
M  V30 2170 H 6.9726 34.1308 5.6957 0
M  V30 2171 H 13.6128 37.8691 5.6963 0
M  V30 2172 H 13.6091 19.7238 -10.9978 0
M  V30 2173 H 13.6100 43.7244 -10.9972 0
M  V30 2174 H 6.9726 43.7304 5.6958 0
M  V30 2175 H 13.6128 -0.5304 5.6960 0
M  V30 2176 H 13.6090 10.1238 -10.9979 0
M  V30 2177 H 13.6095 0.5239 -10.9982 0
M  V30 2178 H 13.6091 24.5237 -10.9978 0
M  V30 2179 H 6.9726 5.3309 5.6962 0
M  V30 2180 H 13.6128 9.0692 5.6960 0
M  V30 2181 H 12.7624 27.8120 -10.8106 0
M  V30 2182 H 7.8221 23.0486 5.5095 0
M  V30 2183 H 12.7625 3.8121 -10.8105 0
M  V30 2184 H 12.7630 20.1517 5.5103 0
M  V30 2185 H 12.7625 13.4120 -10.8106 0
M  V30 2186 H 12.7624 32.6120 -10.8106 0
M  V30 2187 H 7.8225 42.2483 5.5099 0
M  V30 2188 H 12.7630 29.7516 5.5103 0
M  V30 2189 H 12.7623 37.4120 -10.8106 0
M  V30 2190 H 7.8222 32.6485 5.5097 0
M  V30 2191 H 12.7631 39.3516 5.5101 0
M  V30 2192 H 12.7621 42.2120 -10.8105 0
M  V30 2193 H 12.7627 0.9518 5.5104 0
M  V30 2194 H 12.7625 8.6120 -10.8105 0
M  V30 2195 H 12.7624 23.0120 -10.8106 0
M  V30 2196 H 12.7626 -0.9875 -10.8106 0
M  V30 2197 H 7.8220 3.8486 5.5095 0
M  V30 2198 H 7.8221 13.4486 5.5095 0
M  V30 2199 H 12.7625 18.2120 -10.8106 0
M  V30 2200 H 12.7629 10.5517 5.5104 0
M  V30 2201 H 14.9661 26.5739 -10.7487 0
M  V30 2202 H 14.9660 2.5739 -10.7492 0
M  V30 2203 H 14.9784 21.3991 5.4252 0
M  V30 2204 H 14.9661 12.1738 -10.7489 0
M  V30 2205 H 14.9660 31.3739 -10.7487 0
M  V30 2206 H 5.6072 21.8013 5.4259 0
M  V30 2207 H 14.9784 30.9991 5.4254 0
M  V30 2208 H 14.9660 36.1739 -10.7487 0
M  V30 2209 H 5.6073 31.4013 5.4257 0
M  V30 2210 H 14.9784 40.5990 5.4256 0
M  V30 2211 H 14.9661 16.9739 -10.7488 0
M  V30 2212 H 14.9660 40.9735 -10.7477 0
M  V30 2213 H 5.6072 41.0010 5.4251 0
M  V30 2214 H 14.9784 2.1993 5.4246 0
M  V30 2215 H 14.9661 7.3739 -10.7490 0
M  V30 2216 H 14.9661 21.7739 -10.7488 0
M  V30 2217 H 14.9658 -2.2322 -10.7297 0
M  V30 2218 H 5.6072 12.2013 5.4261 0
M  V30 2219 H 5.6072 2.6013 5.4262 0
M  V30 2220 H 14.9784 11.7991 5.4250 0
M  V30 2221 H 15.8327 28.0871 -10.8983 0
M  V30 2222 H 15.8328 4.0873 -10.8978 0
M  V30 2223 H 15.8350 19.9084 5.5960 0
M  V30 2224 H 15.8328 13.6872 -10.8981 0
M  V30 2225 H 15.8326 32.8871 -10.8983 0
M  V30 2226 H 15.8351 29.5084 5.5958 0
M  V30 2227 H 4.7508 23.2914 5.5959 0
M  V30 2228 H 4.7509 42.4913 5.5965 0
M  V30 2229 H 15.8326 37.6871 -10.8983 0
M  V30 2230 H 4.7508 32.8914 5.5961 0
M  V30 2231 H 15.8327 18.4872 -10.8982 0
M  V30 2232 H 15.8322 42.4866 -10.8989 0
M  V30 2233 H 15.8348 0.7085 5.5965 0
M  V30 2234 H 15.8328 8.8872 -10.8979 0
M  V30 2235 H 15.8327 23.2872 -10.8982 0
M  V30 2236 H 15.8327 -0.7132 -10.8969 0
M  V30 2237 H 4.7506 4.0916 5.5953 0
M  V30 2238 H 4.7507 13.6915 5.5956 0
M  V30 2239 H 15.8349 10.3084 5.5962 0
M  V30 2240 H 15.8351 39.1083 5.5955 0
M  V30 2241 N 15.9977 28.5970 -8.0729 0
M  V30 2242 N 4.5983 14.2038 2.7708 0
M  V30 2243 N 15.9972 4.5953 -8.0722 0
M  V30 2244 N 15.9902 19.3965 2.7692 0
M  V30 2245 N 15.9981 14.1958 -8.0735 0
M  V30 2246 N 15.9970 33.3975 -8.0718 0
M  V30 2247 N 4.5984 23.8050 2.7707 0
M  V30 2248 N 15.9902 28.9974 2.7695 0
M  V30 2249 N 15.9957 38.1984 -8.0700 0
M  V30 2250 N 4.5986 33.4065 2.7700 0
M  V30 2251 N 15.9899 38.5983 2.7697 0
M  V30 2252 N 15.9982 18.9962 -8.0737 0
M  V30 2253 N 15.9936 43.0037 -8.0695 0
M  V30 2254 N 4.5978 43.0084 2.7683 0
M  V30 2255 N 15.9897 0.1935 2.7669 0
M  V30 2256 N 15.9978 9.3956 -8.0730 0
M  V30 2257 N 15.9981 23.7965 -8.0734 0
M  V30 2258 N 4.5980 4.6022 2.7706 0
M  V30 2259 N 15.9956 -0.2057 -8.0772 0
M  V30 2260 N 15.9897 9.7954 2.7685 0
M  V30 2261 C 17.1440 29.3468 -7.6157 0
M  V30 2262 C 17.1441 5.3482 -7.6159 0
M  V30 2263 C 17.1554 18.6581 2.3260 0
M  V30 2264 C 17.1437 14.9476 -7.6154 0
M  V30 2265 C 17.1445 34.1465 -7.6159 0
M  V30 2266 C 3.4325 43.7443 2.3182 0
M  V30 2267 C 17.1553 28.2575 2.3257 0
M  V30 2268 C 17.1453 38.9460 -7.6165 0
M  V30 2269 C 17.1555 37.8566 2.3253 0
M  V30 2270 C 17.1436 19.7474 -7.6155 0
M  V30 2271 C 17.1450 43.7490 -7.6170 0
M  V30 2272 C 3.4247 34.1405 2.3196 0
M  V30 2273 C 17.1491 -0.5454 2.3228 0
M  V30 2274 C 17.1437 10.1480 -7.6157 0
M  V30 2275 C 17.1438 24.5470 -7.6155 0
M  V30 2276 C 3.4251 5.3444 2.3198 0
M  V30 2277 C 17.1439 0.5472 -7.6168 0
M  V30 2278 C 3.4244 14.9431 2.3191 0
M  V30 2279 C 17.1557 9.0591 2.3261 0
M  V30 2280 C 3.4244 24.5420 2.3191 0
M  V30 2281 C 18.3800 28.5513 -8.0226 0
M  V30 2282 C 18.3800 4.5516 -8.0216 0
M  V30 2283 C 18.3768 19.4599 2.7284 0
M  V30 2284 C 18.3805 14.1514 -8.0221 0
M  V30 2285 C 18.3801 33.3513 -8.0226 0
M  V30 2286 C 2.2004 23.7425 2.7172 0
M  V30 2287 C 2.2047 42.9430 2.7208 0
M  V30 2288 C 18.3769 29.0599 2.7277 0
M  V30 2289 C 18.3798 38.1509 -8.0229 0
M  V30 2290 C 2.2007 33.3425 2.7191 0
M  V30 2291 C 18.3774 38.6598 2.7265 0
M  V30 2292 C 18.3803 18.9513 -8.0224 0
M  V30 2293 C 18.3775 42.9487 -8.0210 0
M  V30 2294 C 18.3747 0.2588 2.7270 0
M  V30 2295 C 18.3802 9.3515 -8.0220 0
M  V30 2296 C 18.3804 23.7513 -8.0224 0
M  V30 2297 C 2.2016 4.5418 2.7170 0
M  V30 2298 C 2.2007 14.1423 2.7166 0
M  V30 2299 C 18.3767 -0.2509 -8.0195 0
M  V30 2300 C 18.3769 9.8601 2.7291 0
M  V30 2301 O 18.5033 27.3408 -7.8314 0
M  V30 2302 O 18.5007 3.3393 -7.8299 0
M  V30 2303 O 18.4802 20.6682 2.5124 0
M  V30 2304 O 18.4791 30.2691 2.5131 0
M  V30 2305 O 18.5027 12.9400 -7.8322 0
M  V30 2306 O 18.5024 32.1407 -7.8307 0
M  V30 2307 O 2.1241 22.5273 2.5296 0
M  V30 2308 O 18.5009 36.9406 -7.8283 0
M  V30 2309 O 2.1227 32.1289 2.5283 0
M  V30 2310 O 18.4769 39.8707 2.5143 0
M  V30 2311 O 18.5034 17.7404 -7.8321 0
M  V30 2312 O 18.4968 41.7393 -7.8249 0
M  V30 2313 O 2.1165 41.7336 2.5260 0
M  V30 2314 O 18.4825 1.4643 2.5134 0
M  V30 2315 O 18.5021 8.1397 -7.8310 0
M  V30 2316 O 18.5033 22.5406 -7.8323 0
M  V30 2317 O 2.1238 3.3245 2.5273 0
M  V30 2318 O 2.1246 12.9259 2.5294 0
M  V30 2319 O 18.4890 -1.4634 -7.8229 0
M  V30 2320 O 18.4804 11.0673 2.5119 0
M  V30 2321 C 17.1619 29.5798 -6.1001 0
M  V30 2322 C 3.4060 15.1612 0.8064 0
M  V30 2323 C 17.1620 5.5807 -6.1000 0
M  V30 2324 C 17.1813 18.4377 0.8136 0
M  V30 2325 C 17.1618 15.1803 -6.0998 0
M  V30 2326 C 17.1622 34.3796 -6.1001 0
M  V30 2327 C 3.4055 24.7607 0.8066 0
M  V30 2328 C 17.1806 28.0376 0.8130 0
M  V30 2329 C 17.1625 39.1794 -6.1005 0
M  V30 2330 C 3.4048 34.3601 0.8073 0
M  V30 2331 C 17.1798 37.6376 0.8121 0
M  V30 2332 C 17.1617 19.9801 -6.1000 0
M  V30 2333 C 17.1604 43.9848 -6.0995 0
M  V30 2334 C 17.1651 -0.7765 0.8042 0
M  V30 2335 C 17.1618 10.3805 -6.1000 0
M  V30 2336 C 17.1619 24.7799 -6.0999 0
M  V30 2337 C 3.4067 5.5619 0.8066 0
M  V30 2338 C 3.4208 43.9743 0.7996 0
M  V30 2339 C 17.1546 0.7692 -6.0952 0
M  V30 2340 C 17.1818 8.8380 0.8139 0
M  V30 2341 C 15.8480 29.4644 -5.4148 0
M  V30 2342 C 15.8478 5.4629 -5.4148 0
M  V30 2343 C 15.8547 18.5919 0.1730 0
M  V30 2344 C 15.8482 15.0636 -5.4149 0
M  V30 2345 C 15.8480 34.2646 -5.4145 0
M  V30 2346 C 4.7382 24.6033 0.1696 0
M  V30 2347 C 4.7367 34.2055 0.1691 0
M  V30 2348 C 15.8534 28.1940 0.1735 0
M  V30 2349 C 15.8475 39.0652 -5.4145 0
M  V30 2350 C 15.8517 37.7964 0.1735 0
M  V30 2351 C 15.8481 19.8639 -5.4150 0
M  V30 2352 C 15.8306 43.9167 -5.4153 0
M  V30 2353 C 15.8196 -0.6662 0.1376 0
M  V30 2354 C 15.8479 10.2634 -5.4151 0
M  V30 2355 C 15.8482 24.6641 -5.4147 0
M  V30 2356 C 4.7393 5.3999 0.1704 0
M  V30 2357 C 15.8294 0.5973 -5.4019 0
M  V30 2358 C 4.7389 15.0017 0.1700 0
M  V30 2359 C 15.8556 8.9901 0.1722 0
M  V30 2360 C 4.7709 43.8625 0.1347 0
M  V30 2361 C 15.4449 28.3196 -4.8580 0
M  V30 2362 C 15.4442 4.3172 -4.8596 0
M  V30 2363 C 15.3703 19.7954 -0.2637 0
M  V30 2364 C 15.4448 13.9187 -4.8591 0
M  V30 2365 C 15.4447 33.1195 -4.8589 0
M  V30 2366 C 5.2143 23.4001 -0.2814 0
M  V30 2367 C 15.3692 29.3981 -0.2626 0
M  V30 2368 C 15.4445 37.9201 -4.8577 0
M  V30 2369 C 5.2132 33.0030 -0.2822 0
M  V30 2370 C 15.3681 39.0014 -0.2633 0
M  V30 2371 C 15.4449 18.7192 -4.8581 0
M  V30 2372 C 15.4331 42.7410 -4.8700 0
M  V30 2373 C 15.3603 0.5621 -0.2868 0
M  V30 2374 C 15.4447 9.1187 -4.8581 0
M  V30 2375 C 15.4449 23.5191 -4.8591 0
M  V30 2376 C 5.2166 4.1947 -0.2780 0
M  V30 2377 C 5.2272 42.6333 -0.2934 0
M  V30 2378 C 5.2152 13.7977 -0.2802 0
M  V30 2379 C 15.3785 -0.6204 -4.9413 0
M  V30 2380 C 15.3715 10.1929 -0.2665 0
M  V30 2381 C 14.8991 30.4288 -5.3501 0
M  V30 2382 C 14.8989 6.4273 -5.3505 0
M  V30 2383 C 15.0016 17.5642 0.0771 0
M  V30 2384 C 14.8992 16.0278 -5.3505 0
M  V30 2385 C 14.8988 35.2288 -5.3500 0
M  V30 2386 C 5.5908 25.6323 0.0806 0
M  V30 2387 C 14.8988 40.0304 -5.3492 0
M  V30 2388 C 5.5903 35.2338 0.0804 0
M  V30 2389 C 15.0006 36.7672 0.0772 0
M  V30 2390 C 14.8993 20.8283 -5.3503 0
M  V30 2391 C 14.9604 44.9826 -5.2769 0
M  V30 2392 C 14.9725 -1.7753 -0.0255 0
M  V30 2393 C 14.8992 11.2278 -5.3505 0
M  V30 2394 C 14.8992 25.6283 -5.3503 0
M  V30 2395 C 5.5905 6.4297 0.0799 0
M  V30 2396 C 5.6165 44.9685 -0.0239 0
M  V30 2397 C 14.9041 1.6051 -5.3369 0
M  V30 2398 C 5.5909 16.0310 0.0805 0
M  V30 2399 C 15.0016 7.9631 0.0773 0
M  V30 2400 C 15.0013 27.1655 0.0771 0
M  V30 2401 C 14.1724 28.1894 -4.2962 0
M  V30 2402 C 6.4533 13.7318 -0.9053 0
M  V30 2403 C 14.1703 4.1866 -4.3019 0
M  V30 2404 C 14.1397 19.8616 -0.9024 0
M  V30 2405 C 14.1708 13.7881 -4.3013 0
M  V30 2406 C 14.1706 32.9891 -4.3008 0
M  V30 2407 C 6.4530 23.3335 -0.9057 0
M  V30 2408 C 14.1392 29.4636 -0.9019 0
M  V30 2409 C 14.1720 37.7900 -4.2959 0
M  V30 2410 C 6.4523 32.9356 -0.9060 0
M  V30 2411 C 14.1376 39.0688 -0.9020 0
M  V30 2412 C 14.1725 18.5890 -4.2964 0
M  V30 2413 C 14.1638 42.6144 -4.3130 0
M  V30 2414 C 6.4661 42.6083 -0.9046 0
M  V30 2415 C 14.1252 0.5876 -0.9047 0
M  V30 2416 C 14.1724 8.9885 -4.2965 0
M  V30 2417 C 14.1709 23.3886 -4.3011 0
M  V30 2418 C 6.4535 4.1280 -0.9050 0
M  V30 2419 C 14.1101 -0.7669 -4.3691 0
M  V30 2420 C 14.1398 10.2598 -0.9036 0
M  V30 2421 C 13.6263 30.3034 -4.7794 0
M  V30 2422 C 6.8221 34.9664 -0.5387 0
M  V30 2423 C 13.6259 6.3017 -4.7787 0
M  V30 2424 C 13.7690 17.8337 -0.5406 0
M  V30 2425 C 13.6262 15.9022 -4.7787 0
M  V30 2426 C 13.6259 35.1030 -4.7784 0
M  V30 2427 C 6.8224 25.3653 -0.5385 0
M  V30 2428 C 13.7689 27.4345 -0.5405 0
M  V30 2429 C 13.6262 39.9050 -4.7785 0
M  V30 2430 C 13.7687 37.0357 -0.5403 0
M  V30 2431 C 13.6264 20.7029 -4.7796 0
M  V30 2432 C 13.6929 44.8435 -4.6946 0
M  V30 2433 C 13.6983 -1.6594 -0.5899 0
M  V30 2434 C 6.8908 44.8572 -0.5926 0
M  V30 2435 C 13.6262 11.1025 -4.7796 0
M  V30 2436 C 13.6262 25.5026 -4.7786 0
M  V30 2437 C 6.8215 6.1632 -0.5390 0
M  V30 2438 C 6.8222 15.7643 -0.5385 0
M  V30 2439 C 13.6365 1.4789 -4.7671 0
M  V30 2440 C 13.7687 8.2328 -0.5405 0
M  V30 2441 C 13.2378 29.1571 -4.2348 0
M  V30 2442 C 13.2373 5.1559 -4.2317 0
M  V30 2443 C 13.2408 18.9189 -1.0339 0
M  V30 2444 C 13.2375 14.7567 -4.2316 0
M  V30 2445 C 13.2373 33.9577 -4.2312 0
M  V30 2446 C 7.3506 24.2802 -1.0337 0
M  V30 2447 C 13.2407 28.5199 -1.0333 0
M  V30 2448 C 13.2375 38.7580 -4.2347 0
M  V30 2449 C 7.3503 33.8815 -1.0345 0
M  V30 2450 C 13.2406 38.1219 -1.0324 0
M  V30 2451 C 13.2379 19.5566 -4.2350 0
M  V30 2452 C 13.2565 43.6275 -4.2485 0
M  V30 2453 C 7.3328 43.6515 -1.0290 0
M  V30 2454 C 13.2576 -0.4527 -1.0266 0
M  V30 2455 C 13.2377 9.9561 -4.2351 0
M  V30 2456 C 13.2376 24.3572 -4.2315 0
M  V30 2457 C 7.3496 5.0777 -1.0335 0
M  V30 2458 C 7.3506 14.6792 -1.0333 0
M  V30 2459 C 13.2405 9.3178 -1.0344 0
M  V30 2460 C 13.2571 0.3015 -4.2319 0
M  V30 2461 H 15.9022 27.5904 -7.9371 0
M  V30 2462 H 4.6543 41.9869 2.6339 0
M  V30 2463 H 15.9036 3.5909 -7.9373 0
M  V30 2464 H 15.9213 20.4125 2.6380 0
M  V30 2465 H 15.9019 13.1908 -7.9367 0
M  V30 2466 H 15.9032 32.3902 -7.9378 0
M  V30 2467 H 15.9230 39.6117 2.6370 0
M  V30 2468 H 4.6504 22.7884 2.6320 0
M  V30 2469 H 15.9218 30.0122 2.6376 0
M  V30 2470 H 15.9047 37.1900 -7.9389 0
M  V30 2471 H 4.6511 32.3880 2.6330 0
M  V30 2472 H 15.9017 17.9907 -7.9366 0
M  V30 2473 H 15.9064 41.9917 -7.9396 0
M  V30 2474 H 15.9215 1.2135 2.6379 0
M  V30 2475 H 15.9025 8.3908 -7.9369 0
M  V30 2476 H 15.9018 22.7906 -7.9368 0
M  V30 2477 H 4.6518 3.5893 2.6325 0
M  V30 2478 H 4.6505 13.1888 2.6320 0
M  V30 2479 H 15.9216 10.8128 2.6385 0
M  V30 2480 H 15.9157 -1.2038 -7.9243 0
M  V30 2481 H 17.1697 30.3031 -8.1540 0
M  V30 2482 H 3.4071 15.9013 2.8536 0
M  V30 2483 H 17.1694 6.3039 -8.1547 0
M  V30 2484 H 17.1778 17.6978 2.8551 0
M  V30 2485 H 17.1696 15.9036 -8.1542 0
M  V30 2486 H 17.1698 35.1030 -8.1541 0
M  V30 2487 H 3.4069 25.5006 2.8532 0
M  V30 2488 H 17.1777 27.2975 2.8553 0
M  V30 2489 H 17.1698 39.9027 -8.1542 0
M  V30 2490 H 3.4067 35.0999 2.8528 0
M  V30 2491 H 17.1776 36.8971 2.8554 0
M  V30 2492 H 17.1696 20.7034 -8.1542 0
M  V30 2493 H 17.1779 44.7128 -8.1498 0
M  V30 2494 H 3.4061 44.7104 2.8481 0
M  V30 2495 H 17.1787 -1.5121 2.8499 0
M  V30 2496 H 17.1695 11.1038 -8.1545 0
M  V30 2497 H 17.1697 25.5033 -8.1540 0
M  V30 2498 H 3.4074 6.3022 2.8542 0
M  V30 2499 H 17.1780 8.0984 2.8549 0
M  V30 2500 H 17.1695 1.5039 -8.1544 0
M  V30 2501 H 17.5786 30.5650 -5.8835 0
M  V30 2502 H 17.5787 6.5655 -5.8832 0
M  V30 2503 H 17.5740 17.4453 0.5903 0
M  V30 2504 H 17.5787 16.1653 -5.8833 0
M  V30 2505 H 17.5787 35.3649 -5.8835 0
M  V30 2506 H 3.0131 25.7541 0.5883 0
M  V30 2507 H 17.5735 27.0453 0.5900 0
M  V30 2508 H 17.5787 40.1648 -5.8836 0
M  V30 2509 H 17.5729 36.6453 0.5895 0
M  V30 2510 H 3.0065 44.9652 0.5846 0
M  V30 2511 H 17.5786 20.9652 -5.8834 0
M  V30 2512 H 17.5820 44.9675 -5.8867 0
M  V30 2513 H 17.5810 -1.7663 0.5865 0
M  V30 2514 H 17.5787 11.3654 -5.8833 0
M  V30 2515 H 17.5786 25.7651 -5.8834 0
M  V30 2516 H 3.0136 6.5548 0.5877 0
M  V30 2517 H 17.5744 7.8456 0.5907 0
M  V30 2518 H 3.0134 16.1544 0.5880 0
M  V30 2519 H 3.0127 35.3537 0.5889 0
M  V30 2520 H 17.5725 1.7622 -5.8809 0
M  V30 2521 H 17.8588 28.8765 -5.6268 0
M  V30 2522 H 17.8588 4.8769 -5.6270 0
M  V30 2523 H 17.8658 19.1300 0.3221 0
M  V30 2524 H 17.8588 14.4767 -5.6269 0
M  V30 2525 H 17.8590 33.6764 -5.6267 0
M  V30 2526 H 2.7196 24.0695 0.3196 0
M  V30 2527 H 17.8655 28.7298 0.3222 0
M  V30 2528 H 2.7270 43.2728 0.3207 0
M  V30 2529 H 17.8590 38.4763 -5.6267 0
M  V30 2530 H 2.7193 33.6691 0.3195 0
M  V30 2531 H 17.8653 38.3296 0.3224 0
M  V30 2532 H 17.8587 19.2767 -5.6269 0
M  V30 2533 H 17.8554 43.2763 -5.6245 0
M  V30 2534 H 17.8581 -0.0741 0.3229 0
M  V30 2535 H 17.8587 9.6768 -5.6270 0
M  V30 2536 H 17.8588 24.0766 -5.6268 0
M  V30 2537 H 2.7201 4.8702 0.3205 0
M  V30 2538 H 2.7198 14.4698 0.3199 0
M  V30 2539 H 17.8660 9.5302 0.3218 0
M  V30 2540 H 17.8592 0.0746 -5.6259 0
M  V30 2541 H 15.9984 -1.4901 -5.0593 0
M  V30 2542 H 4.5965 12.9230 -0.2431 0
M  V30 2543 H 16.1502 3.5085 -4.9023 0
M  V30 2544 H 15.9762 20.6766 -0.2357 0
M  V30 2545 H 16.1500 13.1087 -4.9016 0
M  V30 2546 H 15.9797 39.8780 -0.2350 0
M  V30 2547 H 16.1496 32.3082 -4.9018 0
M  V30 2548 H 4.5972 22.5234 -0.2442 0
M  V30 2549 H 15.9775 30.2773 -0.2351 0
M  V30 2550 H 16.1494 37.1083 -4.9015 0
M  V30 2551 H 4.5987 32.1238 -0.2450 0
M  V30 2552 H 4.6088 41.7363 -0.2454 0
M  V30 2553 H 16.1495 17.9086 -4.9010 0
M  V30 2554 H 16.1440 41.9185 -4.9062 0
M  V30 2555 H 15.9684 1.4628 -0.2407 0
M  V30 2556 H 16.1499 8.3091 -4.9011 0
M  V30 2557 H 16.1497 22.7083 -4.9016 0
M  V30 2558 H 16.1493 27.5083 -4.9011 0
M  V30 2559 H 4.5966 3.3223 -0.2411 0
M  V30 2560 H 15.9753 11.0759 -0.2371 0
M  V30 2561 H 15.1251 2.5091 -5.8604 0
M  V30 2562 H 15.1214 31.3213 -5.8689 0
M  V30 2563 H 5.3021 17.0336 0.3860 0
M  V30 2564 H 15.1210 7.3218 -5.8679 0
M  V30 2565 H 15.2768 16.5627 0.3895 0
M  V30 2566 H 15.1207 16.9217 -5.8681 0
M  V30 2567 H 15.1218 36.1211 -5.8688 0
M  V30 2568 H 5.3021 26.6338 0.3863 0
M  V30 2569 H 15.2769 26.1631 0.3890 0
M  V30 2570 H 15.1229 40.9217 -5.8685 0
M  V30 2571 H 5.3028 36.2340 0.3871 0
M  V30 2572 H 15.2774 35.7638 0.3885 0
M  V30 2573 H 15.1209 21.7216 -5.8685 0
M  V30 2574 H 15.2683 45.9485 -5.6342 0
M  V30 2575 H 5.3014 45.9375 0.3266 0
M  V30 2576 H 15.2786 -2.7450 0.3291 0
M  V30 2577 H 15.1209 12.1217 -5.8683 0
M  V30 2578 H 15.1209 26.5215 -5.8684 0
M  V30 2579 H 5.3024 7.4335 0.3859 0
M  V30 2580 H 15.2769 6.9626 0.3898 0
M  V30 2581 H 13.7647 -1.7308 -4.0349 0
M  V30 2582 H 6.8005 12.9886 -1.5436 0
M  V30 2583 H 13.9040 3.2980 -3.7969 0
M  V30 2584 H 13.7848 20.6056 -1.5340 0
M  V30 2585 H 6.8121 41.8184 -1.5149 0
M  V30 2586 H 13.9041 12.8990 -3.7960 0
M  V30 2587 H 13.9046 32.0984 -3.7966 0
M  V30 2588 H 6.7997 22.5883 -1.5422 0
M  V30 2589 H 13.7845 30.2059 -1.5355 0
M  V30 2590 H 13.9068 36.8978 -3.7942 0
M  V30 2591 H 6.7994 32.1883 -1.5403 0
M  V30 2592 H 13.7843 39.8145 -1.5341 0
M  V30 2593 H 13.9058 17.6985 -3.7935 0
M  V30 2594 H 13.9015 41.7126 -3.8042 0
M  V30 2595 H 13.7732 1.3763 -1.5126 0
M  V30 2596 H 13.9060 8.0987 -3.7932 0
M  V30 2597 H 13.9041 22.4988 -3.7963 0
M  V30 2598 H 13.9060 27.2982 -3.7938 0
M  V30 2599 H 6.8018 3.3826 -1.5413 0
M  V30 2600 H 13.7851 11.0057 -1.5334 0
M  V30 2601 H 12.8943 2.2806 -4.7370 0
M  V30 2602 H 7.4839 16.4431 -0.9774 0
M  V30 2603 H 12.8888 7.0912 -4.7405 0
M  V30 2604 H 13.0962 17.1619 -0.9750 0
M  V30 2605 H 12.8882 16.6905 -4.7404 0
M  V30 2606 H 12.8881 35.8898 -4.7407 0
M  V30 2607 H 7.4845 26.0431 -0.9774 0
M  V30 2608 H 7.5375 45.7047 -0.7143 0
M  V30 2609 H 13.0967 26.7617 -0.9750 0
M  V30 2610 H 12.8883 40.6909 -4.7411 0
M  V30 2611 H 7.4857 35.6426 -0.9773 0
M  V30 2612 H 13.0977 36.3613 -0.9751 0
M  V30 2613 H 12.8877 21.4906 -4.7413 0
M  V30 2614 H 13.0405 45.6929 -4.5859 0
M  V30 2615 H 13.0417 -2.5036 -0.7092 0
M  V30 2616 H 12.8881 11.8911 -4.7413 0
M  V30 2617 H 12.8880 26.2901 -4.7405 0
M  V30 2618 H 12.8876 31.0902 -4.7414 0
M  V30 2619 H 7.4835 6.8427 -0.9772 0
M  V30 2620 H 13.0959 7.5618 -0.9750 0
M  V30 2621 H 12.2692 29.0444 -3.7854 0
M  V30 2622 H 8.3000 14.6435 -1.5468 0
M  V30 2623 H 12.2817 18.9581 -1.5332 0
M  V30 2624 H 12.2713 5.0470 -3.7745 0
M  V30 2625 H 12.2713 14.6458 -3.7748 0
M  V30 2626 H 12.2715 33.8432 -3.7751 0
M  V30 2627 H 8.3000 24.2421 -1.5466 0
M  V30 2628 H 8.2851 43.4712 -1.5175 0
M  V30 2629 H 12.2819 28.5568 -1.5336 0
M  V30 2630 H 12.2695 38.6429 -3.7854 0
M  V30 2631 H 8.3003 33.8405 -1.5461 0
M  V30 2632 H 12.2690 19.4457 -3.7853 0
M  V30 2633 H 12.2878 43.4628 -3.7855 0
M  V30 2634 H 12.2992 -0.2725 -1.5074 0
M  V30 2635 H 12.2690 9.8471 -3.7850 0
M  V30 2636 H 12.2714 24.2446 -3.7750 0
M  V30 2637 H 8.3002 5.0449 -1.5465 0
M  V30 2638 H 12.2751 0.2408 -3.7911 0
M  V30 2639 H 12.2815 9.3593 -1.5330 0
M  V30 2640 H 12.2822 38.1554 -1.5343 0
M  V30 2641 N 19.3922 29.2270 -8.6260 0
M  V30 2642 N 1.2021 14.8167 3.3318 0
M  V30 2643 N 19.3932 0.4249 -8.6228 0
M  V30 2644 N 19.3920 18.7796 3.3136 0
M  V30 2645 N 19.3921 5.2256 -8.6259 0
M  V30 2646 N 19.3920 14.8262 -8.6265 0
M  V30 2647 N 19.3921 34.0270 -8.6256 0
M  V30 2648 N 1.2020 24.4180 3.3315 0
M  V30 2649 N 19.3917 28.3804 3.3142 0
M  V30 2650 N 19.3919 38.8268 -8.6243 0
M  V30 2651 N 1.2012 34.0197 3.3296 0
M  V30 2652 N 19.3911 37.9816 3.3152 0
M  V30 2653 N 19.3921 19.6265 -8.6264 0
M  V30 2654 N 19.3896 43.6279 -8.6185 0
M  V30 2655 N 1.1983 43.6287 3.3190 0
M  V30 2656 N 19.3930 -0.4293 3.3074 0
M  V30 2657 N 19.3921 10.0259 -8.6263 0
M  V30 2658 N 19.3921 24.4268 -8.6264 0
M  V30 2659 N 1.2015 5.2152 3.3302 0
M  V30 2660 N 19.3921 9.1787 3.3133 0
M  V30 2661 C 20.5903 28.4862 -8.9777 0
M  V30 2662 C 20.5905 -0.3162 -8.9794 0
M  V30 2663 C 20.6041 19.5132 3.6871 0
M  V30 2664 C 20.5912 4.4873 -8.9787 0
M  V30 2665 C 20.5902 14.0868 -8.9777 0
M  V30 2666 C 20.5909 33.2863 -8.9780 0
M  V30 2667 C -0.0242 23.6849 3.6807 0
M  V30 2668 C -0.0246 42.8790 3.6801 0
M  V30 2669 C 20.6043 29.1124 3.6872 0
M  V30 2670 C 20.5924 38.0869 -8.9795 0
M  V30 2671 C -0.0242 33.2831 3.6806 0
M  V30 2672 C 20.6049 38.7112 3.6875 0
M  V30 2673 C 20.5900 18.8866 -8.9776 0
M  V30 2674 C 20.5981 42.8902 -8.9839 0
M  V30 2675 C 20.6058 0.3179 3.6850 0
M  V30 2676 C 20.5905 9.2871 -8.9782 0
M  V30 2677 C 20.5901 23.6863 -8.9775 0
M  V30 2678 C -0.0241 14.0865 3.6814 0
M  V30 2679 C -0.0239 4.4888 3.6831 0
M  V30 2680 C 20.6045 9.9143 3.6868 0
M  V30 2681 C 21.6440 29.3841 -8.5698 0
M  V30 2682 C 21.6438 0.5849 -8.5742 0
M  V30 2683 C 21.6523 18.5998 3.2935 0
M  V30 2684 C 21.6448 5.3845 -8.5712 0
M  V30 2685 C 21.6438 14.9843 -8.5698 0
M  V30 2686 C 21.6446 34.1842 -8.5702 0
M  V30 2687 C -1.0724 24.5949 3.2850 0
M  V30 2688 C -1.0735 43.7936 3.2840 0
M  V30 2689 C 21.6525 28.1997 3.2940 0
M  V30 2690 C 21.6461 38.9847 -8.5725 0
M  V30 2691 C -1.0723 34.1951 3.2842 0
M  V30 2692 C 21.6532 37.7994 3.2946 0
M  V30 2693 C 21.6437 19.7842 -8.5697 0
M  V30 2694 C 21.6494 43.7986 -8.5898 0
M  V30 2695 C 21.6551 -0.5970 3.2912 0
M  V30 2696 C 21.6441 10.1843 -8.5705 0
M  V30 2697 C 21.6437 24.5842 -8.5694 0
M  V30 2698 C -1.0725 14.9953 3.2864 0
M  V30 2699 C -1.0724 5.3964 3.2891 0
M  V30 2700 C 21.6527 9.0001 3.2929 0
M  V30 2701 O 21.9507 30.4332 -8.1473 0
M  V30 2702 O 21.9491 1.6301 -8.1422 0
M  V30 2703 O 21.9301 17.5617 2.8229 0
M  V30 2704 O 21.9502 6.4321 -8.1452 0
M  V30 2705 O 21.9518 16.0328 -8.1475 0
M  V30 2706 O 21.9491 35.2331 -8.1455 0
M  V30 2707 O -1.3304 25.6480 2.8420 0
M  V30 2708 O 21.9302 27.1625 2.8222 0
M  V30 2709 O 21.9452 40.0315 -8.1394 0
M  V30 2710 O -1.3303 35.2502 2.8428 0
M  V30 2711 O 21.9290 36.7632 2.8214 0
M  V30 2712 O 21.9519 20.8329 -8.1478 0
M  V30 2713 O 21.9243 44.8441 -8.1383 0
M  V30 2714 O -1.3216 44.8538 2.8438 0
M  V30 2715 O 21.9169 -1.6450 2.8301 0
M  V30 2716 O 21.9513 11.2323 -8.1466 0
M  V30 2717 O 21.9516 25.6334 -8.1479 0
M  V30 2718 O -1.3308 16.0460 2.8400 0
M  V30 2719 O -1.3316 6.4429 2.8355 0
M  V30 2720 O 21.9288 7.9600 2.8242 0
M  V30 2721 C 20.5470 28.1567 -10.4784 0
M  V30 2722 C 0.0317 13.7639 5.1778 0
M  V30 2723 C 20.5471 -0.6438 -10.4792 0
M  V30 2724 C 20.5513 19.8361 5.1801 0
M  V30 2725 C 20.5472 4.1569 -10.4787 0
M  V30 2726 C 20.5471 13.7568 -10.4783 0
M  V30 2727 C 20.5471 32.9567 -10.4785 0
M  V30 2728 C 0.0317 23.3637 5.1778 0
M  V30 2729 C 20.5513 29.4360 5.1801 0
M  V30 2730 C 20.5471 37.7568 -10.4789 0
M  V30 2731 C 0.0319 32.9635 5.1779 0
M  V30 2732 C 20.5515 39.0358 5.1801 0
M  V30 2733 C 20.5470 18.5568 -10.4783 0
M  V30 2734 C 20.5470 42.5569 -10.4802 0
M  V30 2735 C 0.0326 42.5627 5.1782 0
M  V30 2736 C 20.5511 0.6369 5.1798 0
M  V30 2737 C 20.5471 8.9568 -10.4785 0
M  V30 2738 C 20.5471 23.3567 -10.4783 0
M  V30 2739 C 0.0319 4.1643 5.1783 0
M  V30 2740 C 20.5513 10.2363 5.1801 0
M  V30 2741 C 21.7484 27.3301 -10.9440 0
M  V30 2742 C 21.7487 -1.4767 -10.9389 0
M  V30 2743 C 21.7512 20.6614 5.6450 0
M  V30 2744 C 21.7485 3.3301 -10.9441 0
M  V30 2745 C 21.7484 12.9302 -10.9440 0
M  V30 2746 C 21.7484 32.1301 -10.9440 0
M  V30 2747 C -1.1660 22.5387 5.6447 0
M  V30 2748 C 21.7512 30.2614 5.6450 0
M  V30 2749 C 21.7484 36.9301 -10.9442 0
M  V30 2750 C -1.1661 32.1385 5.6448 0
M  V30 2751 C 21.7513 39.8613 5.6450 0
M  V30 2752 C 21.7484 17.7302 -10.9440 0
M  V30 2753 C 21.7485 41.7299 -10.9447 0
M  V30 2754 C 21.7514 1.4619 5.6453 0
M  V30 2755 C 21.7484 8.1301 -10.9440 0
M  V30 2756 C 21.7484 22.5301 -10.9440 0
M  V30 2757 C -1.1660 3.3388 5.6448 0
M  V30 2758 C -1.1660 12.9387 5.6447 0
M  V30 2759 C 21.7513 11.0615 5.6451 0
M  V30 2760 C -1.1662 41.7381 5.6451 0
M  V30 2761 C 21.7519 27.0110 -12.4374 0
M  V30 2762 C 21.7533 -1.7912 -12.4362 0
M  V30 2763 C 21.7594 20.9814 7.1373 0
M  V30 2764 C 21.7523 3.0109 -12.4375 0
M  V30 2765 C 21.7519 12.6111 -12.4374 0
M  V30 2766 C 21.7519 31.8110 -12.4374 0
M  V30 2767 C -1.1746 22.2185 7.1364 0
M  V30 2768 C 21.7594 30.5812 7.1373 0
M  V30 2769 C 21.7520 36.6112 -12.4376 0
M  V30 2770 C -1.1748 31.8181 7.1364 0
M  V30 2771 C 21.7596 40.1810 7.1373 0
M  V30 2772 C 21.7518 17.4111 -12.4374 0
M  V30 2773 C 21.7519 41.4127 -12.4386 0
M  V30 2774 C 21.7601 1.7823 7.1375 0
M  V30 2775 C 21.7520 7.8111 -12.4375 0
M  V30 2776 C 21.7518 22.2111 -12.4374 0
M  V30 2777 C -1.1746 3.0192 7.1367 0
M  V30 2778 C -1.1745 12.6189 7.1364 0
M  V30 2779 C -1.1753 41.4173 7.1368 0
M  V30 2780 C 21.7596 11.3816 7.1373 0
M  V30 2781 C 23.0312 26.2463 -12.7603 0
M  V30 2782 C 23.0329 -2.5595 -12.7629 0
M  V30 2783 C 23.0308 21.7563 7.4630 0
M  V30 2784 C 23.0323 2.2461 -12.7615 0
M  V30 2785 C 23.0314 11.8468 -12.7605 0
M  V30 2786 C 23.0314 31.0465 -12.7605 0
M  V30 2787 C -2.4484 21.4439 7.4577 0
M  V30 2788 C 23.0311 31.3554 7.4630 0
M  V30 2789 C 23.0319 35.8476 -12.7610 0
M  V30 2790 C -2.4483 31.0420 7.4581 0
M  V30 2791 C 23.0319 40.9542 7.4636 0
M  V30 2792 C 23.0312 16.6466 -12.7603 0
M  V30 2793 C 23.0329 40.6536 -12.7641 0
M  V30 2794 C 23.0317 2.5596 7.4640 0
M  V30 2795 C 23.0317 7.0468 -12.7608 0
M  V30 2796 C 23.0311 21.4464 -12.7603 0
M  V30 2797 C -2.4489 2.2475 7.4599 0
M  V30 2798 C -2.4485 11.8455 7.4581 0
M  V30 2799 C -2.4486 40.6389 7.4601 0
M  V30 2800 C 23.0309 12.1573 7.4631 0
M  V30 2801 N 22.9918 25.7996 -14.1742 0 CHG=1
M  V30 2802 N -2.4030 11.3958 8.8795 0 CHG=1
M  V30 2803 N 22.9894 -2.9975 -14.1737 0 CHG=1
M  V30 2804 N 22.9901 22.2029 8.8767 0 CHG=1
M  V30 2805 N 22.9913 1.8001 -14.1737 0 CHG=1
M  V30 2806 N 22.9918 11.3994 -14.1741 0 CHG=1
M  V30 2807 N 22.9917 30.5995 -14.1742 0 CHG=1
M  V30 2808 N -2.4031 20.9966 8.8796 0 CHG=1
M  V30 2809 N 22.9899 31.8033 8.8768 0 CHG=1
M  V30 2810 N 22.9914 35.3988 -14.1741 0 CHG=1
M  V30 2811 N -2.4034 30.5975 8.8792 0 CHG=1
M  V30 2812 N 22.9896 41.4036 8.8765 0 CHG=1
M  V30 2813 N 22.9919 16.1995 -14.1742 0 CHG=1
M  V30 2814 N 22.9901 40.1947 -14.1746 0 CHG=1
M  V30 2815 N -2.4036 40.1990 8.8778 0 CHG=1
M  V30 2816 N 22.9901 3.0013 8.8758 0 CHG=1
M  V30 2817 N 22.9917 6.5995 -14.1739 0 CHG=1
M  V30 2818 N 22.9919 20.9995 -14.1742 0 CHG=1
M  V30 2819 N -2.4029 1.7953 8.8785 0 CHG=1
M  V30 2820 N 22.9901 12.6023 8.8765 0 CHG=1
M  V30 2821 H 19.2944 30.2403 -8.7441 0
M  V30 2822 H 19.2962 1.4402 -8.7454 0
M  V30 2823 H 19.3199 17.7591 3.4547 0
M  V30 2824 H 19.2951 6.2406 -8.7441 0
M  V30 2825 H 19.2939 15.8405 -8.7434 0
M  V30 2826 H 19.2955 35.0402 -8.7450 0
M  V30 2827 H 1.2535 25.4434 3.4421 0
M  V30 2828 H 19.3203 27.3587 3.4542 0
M  V30 2829 H 19.2986 39.8399 -8.7471 0
M  V30 2830 H 1.2546 35.0424 3.4440 0
M  V30 2831 H 19.3214 36.9584 3.4534 0
M  V30 2832 H 19.2938 20.6405 -8.7435 0
M  V30 2833 H 19.3143 44.6350 -8.7611 0
M  V30 2834 H 19.3184 -1.4319 3.4684 0
M  V30 2835 H 1.2592 44.6331 3.4607 0
M  V30 2836 H 19.2944 11.0406 -8.7436 0
M  V30 2837 H 19.2939 25.4404 -8.7437 0
M  V30 2838 H 1.2532 15.8438 3.4417 0
M  V30 2839 H 1.2536 6.2440 3.4426 0
M  V30 2840 H 19.3201 8.1596 3.4553 0
M  V30 2841 H 20.6445 27.5828 -8.3752 0
M  V30 2842 H 20.6549 20.4186 3.0782 0
M  V30 2843 H 20.6524 -1.2259 -8.3778 0
M  V30 2844 H 20.6448 3.5838 -8.3759 0
M  V30 2845 H 20.6445 13.1832 -8.3754 0
M  V30 2846 H 20.6446 32.3830 -8.3753 0
M  V30 2847 H -0.0687 22.7794 3.0747 0
M  V30 2848 H 20.6550 30.0181 3.0784 0
M  V30 2849 H 20.6449 37.1838 -8.3760 0
M  V30 2850 H -0.0686 32.3783 3.0743 0
M  V30 2851 H 20.6551 39.6173 3.0787 0
M  V30 2852 H 20.6445 17.9830 -8.3753 0
M  V30 2853 H 20.6471 41.9870 -8.3774 0
M  V30 2854 H -0.0680 41.9759 3.0733 0
M  V30 2855 H 20.6541 1.2215 3.0763 0
M  V30 2856 H 20.6446 8.3835 -8.3756 0
M  V30 2857 H 20.6445 22.7829 -8.3752 0
M  V30 2858 H -0.0689 13.1804 3.0754 0
M  V30 2859 H -0.0693 3.5821 3.0766 0
M  V30 2860 H 20.6548 10.8193 3.0778 0
M  V30 2861 H 20.4755 29.0835 -11.0636 0
M  V30 2862 H 20.4772 18.9121 5.7642 0
M  V30 2863 H 20.4760 0.2835 -11.0642 0
M  V30 2864 H 20.4755 5.0835 -11.0639 0
M  V30 2865 H 20.4755 14.6835 -11.0637 0
M  V30 2866 H 20.4755 33.8835 -11.0637 0
M  V30 2867 H 0.1078 24.2877 5.7632 0
M  V30 2868 H 20.4772 28.5121 5.7643 0
M  V30 2869 H 20.4755 38.6835 -11.0639 0
M  V30 2870 H 0.1079 33.8877 5.7631 0
M  V30 2871 H 20.4772 38.1121 5.7645 0
M  V30 2872 H 20.4755 19.4835 -11.0637 0
M  V30 2873 H 20.4760 43.4843 -11.0644 0
M  V30 2874 H 0.1079 43.4874 5.7628 0
M  V30 2875 H 20.4772 -0.2876 5.7637 0
M  V30 2876 H 20.4755 9.8835 -11.0638 0
M  V30 2877 H 20.4755 24.2835 -11.0636 0
M  V30 2878 H 0.1079 14.6877 5.7634 0
M  V30 2879 H 0.1079 5.0878 5.7638 0
M  V30 2880 H 20.4772 9.3121 5.7641 0
M  V30 2881 H 19.6146 27.6093 -10.6888 0
M  V30 2882 H 0.9701 13.2313 5.3828 0
M  V30 2883 H 19.6143 20.3693 5.3840 0
M  V30 2884 H 19.6144 -1.1902 -10.6893 0
M  V30 2885 H 19.6146 3.6094 -10.6887 0
M  V30 2886 H 19.6146 13.2094 -10.6888 0
M  V30 2887 H 19.6146 32.4094 -10.6888 0
M  V30 2888 H 0.9702 22.8312 5.3829 0
M  V30 2889 H 19.6144 29.9692 5.3839 0
M  V30 2890 H 19.6145 37.2094 -10.6887 0
M  V30 2891 H 0.9703 32.4311 5.3830 0
M  V30 2892 H 19.6145 39.5691 5.3837 0
M  V30 2893 H 19.6146 18.0093 -10.6888 0
M  V30 2894 H 19.6143 42.0094 -10.6884 0
M  V30 2895 H 0.9708 42.0309 5.3833 0
M  V30 2896 H 19.6141 1.1694 5.3840 0
M  V30 2897 H 19.6146 8.4094 -10.6887 0
M  V30 2898 H 19.6146 22.8093 -10.6888 0
M  V30 2899 H 0.9701 3.6313 5.3828 0
M  V30 2900 H 19.6143 10.7693 5.3840 0
M  V30 2901 H 21.7848 26.3918 -10.3890 0
M  V30 2902 H 21.7913 21.5887 5.0767 0
M  V30 2903 H 21.7842 -2.4168 -10.3718 0
M  V30 2904 H 21.7848 2.3918 -10.3889 0
M  V30 2905 H 21.7848 11.9918 -10.3889 0
M  V30 2906 H 21.7848 31.1918 -10.3890 0
M  V30 2907 H -1.2056 21.6114 5.0771 0
M  V30 2908 H 21.7913 31.1887 5.0767 0
M  V30 2909 H 21.7848 35.9918 -10.3890 0
M  V30 2910 H -1.2056 31.2113 5.0771 0
M  V30 2911 H 21.7913 40.7886 5.0767 0
M  V30 2912 H -1.2057 40.8111 5.0770 0
M  V30 2913 H 21.7848 16.7918 -10.3890 0
M  V30 2914 H 21.7848 40.7916 -10.3890 0
M  V30 2915 H 21.7914 2.3889 5.0767 0
M  V30 2916 H 21.7848 7.1918 -10.3889 0
M  V30 2917 H 21.7848 21.5918 -10.3890 0
M  V30 2918 H -1.2056 12.0114 5.0771 0
M  V30 2919 H -1.2057 2.4115 5.0770 0
M  V30 2920 H 21.7913 11.9887 5.0767 0
M  V30 2921 H 22.6808 27.8563 -10.7180 0
M  V30 2922 H 22.6835 20.1404 5.4174 0
M  V30 2923 H 22.6802 -0.9449 -10.7178 0
M  V30 2924 H 22.6809 3.8563 -10.7180 0
M  V30 2925 H 22.6808 13.4563 -10.7180 0
M  V30 2926 H 22.6808 32.6563 -10.7180 0
M  V30 2927 H -2.0981 23.0596 5.4174 0
M  V30 2928 H 22.6835 29.7404 5.4174 0
M  V30 2929 H -2.0980 42.2594 5.4175 0
M  V30 2930 H 22.6808 37.4563 -10.7181 0
M  V30 2931 H -2.0981 32.6595 5.4174 0
M  V30 2932 H 22.6835 39.3404 5.4174 0
M  V30 2933 H 22.6808 18.2563 -10.7180 0
M  V30 2934 H 22.6809 42.2560 -10.7182 0
M  V30 2935 H 22.6835 0.9406 5.4175 0
M  V30 2936 H 22.6808 8.6563 -10.7180 0
M  V30 2937 H 22.6808 23.0563 -10.7180 0
M  V30 2938 H -2.0981 13.4596 5.4174 0
M  V30 2939 H -2.0981 3.8596 5.4174 0
M  V30 2940 H 22.6835 10.5405 5.4175 0
M  V30 2941 H 21.7169 27.9409 -13.0193 0
M  V30 2942 H 21.7203 20.0542 7.7207 0
M  V30 2943 H 21.7175 -0.8598 -13.0184 0
M  V30 2944 H 21.7169 3.9408 -13.0192 0
M  V30 2945 H 21.7168 13.5409 -13.0193 0
M  V30 2946 H 21.7169 32.7409 -13.0193 0
M  V30 2947 H -1.1351 23.1455 7.7206 0
M  V30 2948 H 21.7202 29.6541 7.7207 0
M  V30 2949 H 21.7168 37.5410 -13.0193 0
M  V30 2950 H -1.1353 32.7453 7.7206 0
M  V30 2951 H -1.1356 42.3449 7.7205 0
M  V30 2952 H 21.7202 39.2540 7.7207 0
M  V30 2953 H 21.7168 18.3409 -13.0193 0
M  V30 2954 H 21.7173 42.3432 -13.0202 0
M  V30 2955 H 21.7207 0.8547 7.7206 0
M  V30 2956 H 21.7168 8.7409 -13.0193 0
M  V30 2957 H 21.7169 23.1409 -13.0193 0
M  V30 2958 H -1.1350 13.5457 7.7206 0
M  V30 2959 H -1.1348 3.9459 7.7207 0
M  V30 2960 H 21.7204 10.4543 7.7207 0
M  V30 2961 H 20.8636 26.4293 -12.7149 0
M  V30 2962 H -0.2894 12.0485 7.4204 0
M  V30 2963 H 20.8742 21.5514 7.4204 0
M  V30 2964 H 20.8637 -2.3707 -12.7148 0
M  V30 2965 H 20.8638 2.4293 -12.7148 0
M  V30 2966 H 20.8636 12.0293 -12.7149 0
M  V30 2967 H 20.8636 31.2293 -12.7149 0
M  V30 2968 H -0.2893 21.6485 7.4204 0
M  V30 2969 H 20.8743 31.1514 7.4204 0
M  V30 2970 H 20.8637 36.0292 -12.7149 0
M  V30 2971 H -0.2892 31.2485 7.4204 0
M  V30 2972 H 20.8745 40.7513 7.4205 0
M  V30 2973 H 20.8636 16.8293 -12.7149 0
M  V30 2974 H 20.8640 40.8293 -12.7151 0
M  V30 2975 H -0.2891 40.8484 7.4203 0
M  V30 2976 H 20.8742 2.3515 7.4203 0
M  V30 2977 H 20.8637 7.2292 -12.7149 0
M  V30 2978 H 20.8636 21.6293 -12.7149 0
M  V30 2979 H -0.2896 2.4486 7.4205 0
M  V30 2980 H 20.8742 11.9514 7.4204 0
M  V30 2981 H 23.1632 25.3541 -12.1402 0
M  V30 2982 H -2.5831 39.7499 6.8416 0
M  V30 2983 H 23.1675 22.6461 6.8430 0
M  V30 2984 H 23.1637 -3.4492 -12.1405 0
M  V30 2985 H 23.1634 1.3542 -12.1405 0
M  V30 2986 H 23.1632 10.9544 -12.1402 0
M  V30 2987 H 23.1632 30.1542 -12.1402 0
M  V30 2988 H -2.5828 20.5523 6.8416 0
M  V30 2989 H 23.1675 32.2455 6.8431 0
M  V30 2990 H 23.1632 34.9550 -12.1405 0
M  V30 2991 H -2.5829 30.1513 6.8415 0
M  V30 2992 H 23.1676 41.8447 6.8434 0
M  V30 2993 H 23.1632 15.7543 -12.1402 0
M  V30 2994 H 23.1630 39.7593 -12.1422 0
M  V30 2995 H 23.1679 3.4478 6.8428 0
M  V30 2996 H 23.1632 6.1545 -12.1403 0
M  V30 2997 H 23.1632 20.5541 -12.1402 0
M  V30 2998 H -2.5827 10.9534 6.8419 0
M  V30 2999 H -2.5826 1.3551 6.8426 0
M  V30 3000 H 23.1676 13.0467 6.8429 0
M  V30 3001 H 23.9230 26.8732 -12.6440 0
M  V30 3002 H 23.9221 21.1285 7.3441 0
M  V30 3003 H 23.9225 -1.9284 -12.6443 0
M  V30 3004 H 23.9235 2.8733 -12.6442 0
M  V30 3005 H 23.9232 12.4734 -12.6441 0
M  V30 3006 H 23.9232 31.6733 -12.6441 0
M  V30 3007 H -3.3386 22.0723 7.3436 0
M  V30 3008 H 23.9225 30.7282 7.3442 0
M  V30 3009 H 23.9237 36.4738 -12.6443 0
M  V30 3010 H -3.3381 31.6716 7.3435 0
M  V30 3011 H 23.9232 40.3276 7.3445 0
M  V30 3012 H 23.9231 17.2733 -12.6440 0
M  V30 3013 H 23.9258 41.2758 -12.6456 0
M  V30 3014 H -3.3374 41.2706 7.3436 0
M  V30 3015 H 23.9218 1.9295 7.3441 0
M  V30 3016 H 23.9234 7.6735 -12.6441 0
M  V30 3017 H 23.9230 22.0732 -12.6440 0
M  V30 3018 H -3.3391 12.4729 7.3438 0
M  V30 3019 H -3.3397 2.8736 7.3443 0
M  V30 3020 H 23.9219 11.5289 7.3441 0
M  V30 3021 H 22.5031 26.4745 -14.7805 0
M  V30 3022 H 22.4968 21.5244 9.4679 0
M  V30 3023 H 22.5052 -2.3318 -14.7872 0
M  V30 3024 H 22.5054 2.4740 -14.7827 0
M  V30 3025 H 22.5037 12.0751 -14.7805 0
M  V30 3026 H 22.5037 31.2749 -14.7806 0
M  V30 3027 H -1.9145 21.6801 9.4629 0
M  V30 3028 H 22.4977 31.1229 9.4674 0
M  V30 3029 H 22.5055 36.0770 -14.7802 0
M  V30 3030 H -1.9136 31.2773 9.4648 0
M  V30 3031 H 22.4999 40.7216 9.4680 0
M  V30 3032 H 22.5032 16.8749 -14.7803 0
M  V30 3033 H 22.5129 40.8902 -14.7735 0
M  V30 3034 H -1.9141 40.8724 9.4703 0
M  V30 3035 H 22.4979 2.3291 9.4729 0
M  V30 3036 H 22.5044 7.2750 -14.7812 0
M  V30 3037 H 22.5030 21.6746 -14.7803 0
M  V30 3038 H -1.9157 12.0821 9.4624 0
M  V30 3039 H -1.9179 2.4834 9.4637 0
M  V30 3040 H 22.4966 11.9260 9.4690 0
M  V30 3041 H 23.9217 25.6365 -14.5765 0
M  V30 3042 H -3.3360 11.2287 9.2569 0
M  V30 3043 H 23.9168 22.3753 9.2666 0
M  V30 3044 H 23.9188 -3.1790 -14.5745 0
M  V30 3045 H 23.9217 1.6346 -14.5771 0
M  V30 3046 H 23.9219 11.2372 -14.5768 0
M  V30 3047 H 23.9218 30.4369 -14.5765 0
M  V30 3048 H -3.3358 20.8253 9.2560 0
M  V30 3049 H 23.9172 31.9734 9.2666 0
M  V30 3050 H 23.9220 35.2391 -14.5766 0
M  V30 3051 H -3.3351 30.4217 9.2566 0
M  V30 3052 H 23.9176 41.5716 9.2674 0
M  V30 3053 H 23.9218 16.0369 -14.5766 0
M  V30 3054 H 23.9226 40.0499 -14.5759 0
M  V30 3055 H -3.3338 40.0172 9.2597 0
M  V30 3056 H 23.9161 3.1803 9.2680 0
M  V30 3057 H 23.9219 6.4369 -14.5770 0
M  V30 3058 H 23.9217 20.8366 -14.5765 0
M  V30 3059 H -3.3357 1.6317 9.2600 0
M  V30 3060 H 23.9165 12.7773 9.2668 0
M  V30 3061 H 22.4395 24.9326 -14.2175 0
M  V30 3062 H -1.8433 10.5186 8.8870 0
M  V30 3063 H 22.4251 23.0805 8.8946 0
M  V30 3064 H 22.4551 -3.8832 -14.2158 0
M  V30 3065 H 22.4435 0.9302 -14.2197 0
M  V30 3066 H 22.4397 10.5329 -14.2182 0
M  V30 3067 H 22.4398 29.7325 -14.2178 0
M  V30 3068 H -1.8441 20.1173 8.8857 0
M  V30 3069 H 22.4250 32.6799 8.8949 0
M  V30 3070 H 22.4399 34.5326 -14.2184 0
M  V30 3071 H -1.8452 29.7160 8.8861 0
M  V30 3072 H 22.4264 42.2798 8.8968 0
M  V30 3073 H 22.4394 15.3329 -14.2177 0
M  V30 3074 H 22.4378 39.3337 -14.2203 0
M  V30 3075 H -1.8474 39.3138 8.8892 0
M  V30 3076 H 22.4284 3.8834 8.8964 0
M  V30 3077 H 22.4407 5.7324 -14.2189 0
M  V30 3078 H 22.4394 20.1328 -14.2175 0
M  V30 3079 H -1.8435 0.9195 8.8912 0
M  V30 3080 H 22.4259 13.4814 8.8948 0
M  V30 END ATOM
M  V30 BEGIN BOND
M  V30 1 1 1 34
M  V30 2 1 1 232
M  V30 3 1 2 38
M  V30 4 1 2 224
M  V30 5 1 3 27
M  V30 6 1 3 228
M  V30 7 1 4 36
M  V30 8 1 4 226
M  V30 9 1 5 37
M  V30 10 1 5 240
M  V30 11 1 6 32
M  V30 12 1 6 236
M  V30 13 1 7 40
M  V30 14 1 7 230
M  V30 15 1 8 31
M  V30 16 1 8 233
M  V30 17 1 9 23
M  V30 18 1 9 238
M  V30 19 1 10 30
M  V30 20 1 10 225
M  V30 21 1 11 25
M  V30 22 1 11 239
M  V30 23 1 12 35
M  V30 24 1 12 221
M  V30 25 1 13 26
M  V30 26 1 13 222
M  V30 27 1 14 28
M  V30 28 1 14 237
M  V30 29 1 15 24
M  V30 30 1 15 223
M  V30 31 1 16 22
M  V30 32 1 16 231
M  V30 33 1 17 21
M  V30 34 1 17 235
M  V30 35 1 18 29
M  V30 36 1 18 234
M  V30 37 1 19 33
M  V30 38 1 19 229
M  V30 39 1 20 39
M  V30 40 1 20 227
M  V30 41 1 21 44
M  V30 42 1 21 100
M  V30 43 1 21 259
M  V30 44 1 22 51
M  V30 45 1 22 84
M  V30 46 1 22 256
M  V30 47 1 23 45
M  V30 48 1 23 98
M  V30 49 1 23 254
M  V30 50 1 24 48
M  V30 51 1 24 91
M  V30 52 1 24 246
M  V30 53 1 25 60
M  V30 54 1 25 90
M  V30 55 1 25 244
M  V30 56 1 26 41
M  V30 57 1 26 97
M  V30 58 1 26 248
M  V30 59 1 27 55
M  V30 60 1 27 94
M  V30 61 1 27 243
M  V30 62 1 28 54
M  V30 63 1 28 87
M  V30 64 1 28 257
M  V30 65 1 29 43
M  V30 66 1 29 81
M  V30 67 1 29 250
M  V30 68 1 30 57
M  V30 69 1 30 82
M  V30 70 1 30 251
M  V30 71 1 31 52
M  V30 72 1 31 96
M  V30 73 1 31 260
M  V30 74 1 32 49
M  V30 75 1 32 89
M  V30 76 1 32 255
M  V30 77 1 33 59
M  V30 78 1 33 99
M  V30 79 1 33 247
M  V30 80 1 34 46
M  V30 81 1 34 92
M  V30 82 1 34 242
M  V30 83 1 35 58
M  V30 84 1 35 88
M  V30 85 1 35 258
M  V30 86 1 36 42
M  V30 87 1 36 83
M  V30 88 1 36 249
M  V30 89 1 37 47
M  V30 90 1 37 86
M  V30 91 1 37 241
M  V30 92 1 38 50
M  V30 93 1 38 95
M  V30 94 1 38 253
M  V30 95 1 39 53
M  V30 96 1 39 93
M  V30 97 1 39 252
M  V30 98 1 40 56
M  V30 99 1 40 85
M  V30 100 1 40 245
M  V30 101 2 41 62
M  V30 102 1 41 402
M  V30 103 2 42 68
M  V30 104 1 42 407
M  V30 105 2 43 63
M  V30 106 1 43 414
M  V30 107 2 44 66
M  V30 108 1 44 420
M  V30 109 2 45 79
M  V30 110 1 45 412
M  V30 111 2 46 76
M  V30 112 1 46 404
M  V30 113 2 47 72
M  V30 114 1 47 419
M  V30 115 2 48 77
M  V30 116 1 48 405
M  V30 117 2 49 78
M  V30 118 1 49 403
M  V30 119 2 50 65
M  V30 120 1 50 408
M  V30 121 2 51 75
M  V30 122 1 51 416
M  V30 123 2 52 74
M  V30 124 1 52 418
M  V30 125 2 53 73
M  V30 126 1 53 409
M  V30 127 2 54 69
M  V30 128 1 54 411
M  V30 129 2 55 70
M  V30 130 1 55 415
M  V30 131 2 56 80
M  V30 132 1 56 410
M  V30 133 2 57 71
M  V30 134 1 57 401
M  V30 135 2 58 67
M  V30 136 1 58 406
M  V30 137 2 59 61
M  V30 138 1 59 413
M  V30 139 2 60 64
M  V30 140 1 60 417
M  V30 141 1 81 111
M  V30 142 1 81 276
M  V30 143 1 81 299
M  V30 144 1 82 107
M  V30 145 1 82 264
M  V30 146 1 82 295
M  V30 147 1 83 108
M  V30 148 1 83 274
M  V30 149 1 83 298
M  V30 150 1 84 117
M  V30 151 1 84 266
M  V30 152 1 84 285
M  V30 153 1 85 120
M  V30 154 1 85 267
M  V30 155 1 85 300
M  V30 156 1 86 101
M  V30 157 1 86 272
M  V30 158 1 86 288
M  V30 159 1 87 103
M  V30 160 1 87 265
M  V30 161 1 87 294
M  V30 162 1 88 105
M  V30 163 1 88 280
M  V30 164 1 88 297
M  V30 165 1 89 102
M  V30 166 1 89 279
M  V30 167 1 89 282
M  V30 168 1 90 104
M  V30 169 1 90 269
M  V30 170 1 90 281
M  V30 171 1 91 119
M  V30 172 1 91 271
M  V30 173 1 91 293
M  V30 174 1 92 116
M  V30 175 1 92 261
M  V30 176 1 92 292
M  V30 177 1 93 112
M  V30 178 1 93 278
M  V30 179 1 93 284
M  V30 180 1 94 109
M  V30 181 1 94 268
M  V30 182 1 94 296
M  V30 183 1 95 110
M  V30 184 1 95 262
M  V30 185 1 95 283
M  V30 186 1 96 118
M  V30 187 1 96 273
M  V30 188 1 96 290
M  V30 189 1 97 114
M  V30 190 1 97 275
M  V30 191 1 97 291
M  V30 192 1 98 106
M  V30 193 1 98 270
M  V30 194 1 98 289
M  V30 195 1 99 115
M  V30 196 1 99 277
M  V30 197 1 99 287
M  V30 198 1 100 113
M  V30 199 1 100 263
M  V30 200 1 100 286
M  V30 201 2 101 125
M  V30 202 1 101 145
M  V30 203 2 102 123
M  V30 204 1 102 142
M  V30 205 2 103 131
M  V30 206 1 103 141
M  V30 207 2 104 124
M  V30 208 1 104 154
M  V30 209 2 105 127
M  V30 210 1 105 151
M  V30 211 2 106 136
M  V30 212 1 106 159
M  V30 213 2 107 134
M  V30 214 1 107 155
M  V30 215 2 108 133
M  V30 216 1 108 157
M  V30 217 2 109 138
M  V30 218 1 109 158
M  V30 219 2 110 126
M  V30 220 1 110 148
M  V30 221 2 111 128
M  V30 222 1 111 149
M  V30 223 2 112 130
M  V30 224 1 112 143
M  V30 225 2 113 140
M  V30 226 1 113 160
M  V30 227 2 114 129
M  V30 228 1 114 156
M  V30 229 2 115 139
M  V30 230 1 115 152
M  V30 231 2 116 121
M  V30 232 1 116 144
M  V30 233 2 117 135
M  V30 234 1 117 147
M  V30 235 2 118 122
M  V30 236 1 118 153
M  V30 237 2 119 132
M  V30 238 1 119 146
M  V30 239 2 120 137
M  V30 240 1 120 150
M  V30 241 1 121 170
M  V30 242 1 121 308
M  V30 243 1 122 178
M  V30 244 1 122 318
M  V30 245 1 123 165
M  V30 246 1 123 302
M  V30 247 1 124 164
M  V30 248 1 124 310
M  V30 249 1 125 172
M  V30 250 1 125 306
M  V30 251 1 126 163
M  V30 252 1 126 305
M  V30 253 1 127 177
M  V30 254 1 127 315
M  V30 255 1 128 171
M  V30 256 1 128 304
M  V30 257 1 129 173
M  V30 258 1 129 307
M  V30 259 1 130 167
M  V30 260 1 130 317
M  V30 261 1 131 179
M  V30 262 1 131 314
M  V30 263 1 132 174
M  V30 264 1 132 313
M  V30 265 1 133 175
M  V30 266 1 133 319
M  V30 267 1 134 161
M  V30 268 1 134 320
M  V30 269 1 135 180
M  V30 270 1 135 309
M  V30 271 1 136 176
M  V30 272 1 136 301
M  V30 273 1 137 168
M  V30 274 1 137 312
M  V30 275 1 138 162
M  V30 276 1 138 316
M  V30 277 1 139 166
M  V30 278 1 139 303
M  V30 279 1 140 169
M  V30 280 1 140 311
M  V30 281 2 141 197
M  V30 282 1 141 338
M  V30 283 2 142 186
M  V30 284 1 142 321
M  V30 285 2 143 181
M  V30 286 1 143 327
M  V30 287 2 144 190
M  V30 288 1 144 340
M  V30 289 2 145 194
M  V30 290 1 145 324
M  V30 291 2 146 195
M  V30 292 1 146 323
M  V30 293 2 147 187
M  V30 294 1 147 329
M  V30 295 2 148 196
M  V30 296 1 148 331
M  V30 297 2 149 182
M  V30 298 1 149 335
M  V30 299 2 150 189
M  V30 300 1 150 330
M  V30 301 2 151 198
M  V30 302 1 151 328
M  V30 303 2 152 184
M  V30 304 1 152 333
M  V30 305 2 153 192
M  V30 306 1 153 322
M  V30 307 2 154 188
M  V30 308 1 154 334
M  V30 309 2 155 183
M  V30 310 1 155 332
M  V30 311 2 156 191
M  V30 312 1 156 336
M  V30 313 2 157 185
M  V30 314 1 157 337
M  V30 315 2 158 199
M  V30 316 1 158 326
M  V30 317 2 159 193
M  V30 318 1 159 325
M  V30 319 2 160 200
M  V30 320 1 160 339
M  V30 321 2 161 213
M  V30 322 1 161 349
M  V30 323 2 162 214
M  V30 324 1 162 354
M  V30 325 2 163 207
M  V30 326 1 163 341
M  V30 327 2 164 204
M  V30 328 1 164 348
M  V30 329 2 165 201
M  V30 330 1 165 353
M  V30 331 2 166 202
M  V30 332 1 166 350
M  V30 333 2 167 208
M  V30 334 1 167 346
M  V30 335 2 168 206
M  V30 336 1 168 351
M  V30 337 2 169 210
M  V30 338 1 169 355
M  V30 339 2 170 209
M  V30 340 1 170 352
M  V30 341 2 171 218
M  V30 342 1 171 344
M  V30 343 2 172 220
M  V30 344 1 172 347
M  V30 345 2 173 211
M  V30 346 1 173 356
M  V30 347 2 174 212
M  V30 348 1 174 342
M  V30 349 2 175 216
M  V30 350 1 175 345
M  V30 351 2 176 217
M  V30 352 1 176 360
M  V30 353 2 177 203
M  V30 354 1 177 358
M  V30 355 2 178 205
M  V30 356 1 178 359
M  V30 357 2 179 219
M  V30 358 1 179 343
M  V30 359 2 180 215
M  V30 360 1 180 357
M  V30 361 1 181 208
M  V30 362 1 181 378
M  V30 363 1 182 218
M  V30 364 1 182 379
M  V30 365 1 183 213
M  V30 366 1 183 372
M  V30 367 1 184 202
M  V30 368 1 184 373
M  V30 369 1 185 216
M  V30 370 1 185 376
M  V30 371 1 186 201
M  V30 372 1 186 367
M  V30 373 1 187 215
M  V30 374 1 187 380
M  V30 375 1 188 204
M  V30 376 1 188 361
M  V30 377 1 189 206
M  V30 378 1 189 368
M  V30 379 1 190 209
M  V30 380 1 190 375
M  V30 381 1 191 211
M  V30 382 1 191 371
M  V30 383 1 192 205
M  V30 384 1 192 365
M  V30 385 1 193 217
M  V30 386 1 193 364
M  V30 387 1 194 220
M  V30 388 1 194 369
M  V30 389 1 195 212
M  V30 390 1 195 362
M  V30 391 1 196 207
M  V30 392 1 196 370
M  V30 393 1 197 219
M  V30 394 1 197 366
M  V30 395 1 198 203
M  V30 396 1 198 374
M  V30 397 1 199 214
M  V30 398 1 199 377
M  V30 399 1 200 210
M  V30 400 1 200 363
M  V30 401 1 201 395
M  V30 402 1 202 382
M  V30 403 1 203 389
M  V30 404 1 204 397
M  V30 405 1 205 383
M  V30 406 1 206 394
M  V30 407 1 207 385
M  V30 408 1 208 386
M  V30 409 1 209 399
M  V30 410 1 210 400
M  V30 411 1 211 384
M  V30 412 1 212 387
M  V30 413 1 213 381
M  V30 414 1 214 393
M  V30 415 1 215 390
M  V30 416 1 216 398
M  V30 417 1 217 396
M  V30 418 1 218 392
M  V30 419 1 219 391
M  V30 420 1 220 388
M  V30 421 1 401 429
M  V30 422 1 401 587
M  V30 423 1 402 423
M  V30 424 1 402 584
M  V30 425 1 403 425
M  V30 426 1 403 592
M  V30 427 1 404 439
M  V30 428 1 404 596
M  V30 429 1 405 434
M  V30 430 1 405 589
M  V30 431 1 406 431
M  V30 432 1 406 594
M  V30 433 1 407 433
M  V30 434 1 407 582
M  V30 435 1 408 432
M  V30 436 1 408 588
M  V30 437 1 409 435
M  V30 438 1 409 586
M  V30 439 1 410 421
M  V30 440 1 410 581
M  V30 441 1 411 424
M  V30 442 1 411 598
M  V30 443 1 412 422
M  V30 444 1 412 600
M  V30 445 1 413 428
M  V30 446 1 413 585
M  V30 447 1 414 436
M  V30 448 1 414 593
M  V30 449 1 415 426
M  V30 450 1 415 583
M  V30 451 1 416 438
M  V30 452 1 416 599
M  V30 453 1 417 427
M  V30 454 1 417 591
M  V30 455 1 418 440
M  V30 456 1 418 597
M  V30 457 1 419 437
M  V30 458 1 419 595
M  V30 459 1 420 430
M  V30 460 1 420 590
M  V30 461 1 421 454
M  V30 462 1 421 496
M  V30 463 1 421 601
M  V30 464 1 422 442
M  V30 465 1 422 491
M  V30 466 1 422 604
M  V30 467 1 423 448
M  V30 468 1 423 494
M  V30 469 1 423 613
M  V30 470 1 424 460
M  V30 471 1 424 493
M  V30 472 1 424 619
M  V30 473 1 425 443
M  V30 474 1 425 490
M  V30 475 1 425 602
M  V30 476 1 426 444
M  V30 477 1 426 499
M  V30 478 1 426 608
M  V30 479 1 427 449
M  V30 480 1 427 481
M  V30 481 1 427 605
M  V30 482 1 428 452
M  V30 483 1 428 495
M  V30 484 1 428 612
M  V30 485 1 429 453
M  V30 486 1 429 485
M  V30 487 1 429 609
M  V30 488 1 430 441
M  V30 489 1 430 500
M  V30 490 1 430 618
M  V30 491 1 431 455
M  V30 492 1 431 489
M  V30 493 1 431 610
M  V30 494 1 432 459
M  V30 495 1 432 482
M  V30 496 1 432 620
M  V30 497 1 433 456
M  V30 498 1 433 483
M  V30 499 1 433 617
M  V30 500 1 434 450
M  V30 501 1 434 486
M  V30 502 1 434 611
M  V30 503 1 435 451
M  V30 504 1 435 497
M  V30 505 1 435 615
M  V30 506 1 436 457
M  V30 507 1 436 484
M  V30 508 1 436 616
M  V30 509 1 437 447
M  V30 510 1 437 498
M  V30 511 1 437 606
M  V30 512 1 438 458
M  V30 513 1 438 487
M  V30 514 1 438 607
M  V30 515 1 439 446
M  V30 516 1 439 488
M  V30 517 1 439 614
M  V30 518 1 440 445
M  V30 519 1 440 492
M  V30 520 1 440 603
M  V30 521 2 441 476
M  V30 522 1 441 708
M  V30 523 2 442 466
M  V30 524 1 442 714
M  V30 525 2 443 461
M  V30 526 1 443 716
M  V30 527 2 444 464
M  V30 528 1 444 703
M  V30 529 2 445 463
M  V30 530 1 445 709
M  V30 531 2 446 465
M  V30 532 1 446 713
M  V30 533 2 447 472
M  V30 534 1 447 720
M  V30 535 2 448 477
M  V30 536 1 448 718
M  V30 537 2 449 471
M  V30 538 1 449 705
M  V30 539 2 450 468
M  V30 540 1 450 702
M  V30 541 2 451 474
M  V30 542 1 451 701
M  V30 543 2 452 462
M  V30 544 1 452 712
M  V30 545 2 453 480
M  V30 546 1 453 704
M  V30 547 2 454 478
M  V30 548 1 454 715
M  V30 549 2 455 473
M  V30 550 1 455 706
M  V30 551 2 456 479
M  V30 552 1 456 707
M  V30 553 2 457 470
M  V30 554 1 457 719
M  V30 555 2 458 469
M  V30 556 1 458 711
M  V30 557 2 459 467
M  V30 558 1 459 710
M  V30 559 2 460 475
M  V30 560 1 460 717
M  V30 561 1 481 520
M  V30 562 1 481 623
M  V30 563 1 481 641
M  V30 564 1 482 505
M  V30 565 1 482 638
M  V30 566 1 482 650
M  V30 567 1 483 518
M  V30 568 1 483 626
M  V30 569 1 483 657
M  V30 570 1 484 512
M  V30 571 1 484 628
M  V30 572 1 484 654
M  V30 573 1 485 502
M  V30 574 1 485 624
M  V30 575 1 485 646
M  V30 576 1 486 513
M  V30 577 1 486 622
M  V30 578 1 486 656
M  V30 579 1 487 517
M  V30 580 1 487 630
M  V30 581 1 487 659
M  V30 582 1 488 508
M  V30 583 1 488 634
M  V30 584 1 488 647
M  V30 585 1 489 510
M  V30 586 1 489 629
M  V30 587 1 489 655
M  V30 588 1 490 514
M  V30 589 1 490 640
M  V30 590 1 490 649
M  V30 591 1 491 515
M  V30 592 1 491 633
M  V30 593 1 491 648
M  V30 594 1 492 503
M  V30 595 1 492 632
M  V30 596 1 492 653
M  V30 597 1 493 501
M  V30 598 1 493 639
M  V30 599 1 493 660
M  V30 600 1 494 504
M  V30 601 1 494 631
M  V30 602 1 494 651
M  V30 603 1 495 506
M  V30 604 1 495 625
M  V30 605 1 495 644
M  V30 606 1 496 509
M  V30 607 1 496 635
M  V30 608 1 496 642
M  V30 609 1 497 511
M  V30 610 1 497 621
M  V30 611 1 497 643
M  V30 612 1 498 519
M  V30 613 1 498 636
M  V30 614 1 498 645
M  V30 615 1 499 516
M  V30 616 1 499 627
M  V30 617 1 499 658
M  V30 618 1 500 507
M  V30 619 1 500 637
M  V30 620 1 500 652
M  V30 621 1 501 521
M  V30 622 1 501 672
M  V30 623 1 501 698
M  V30 624 1 502 535
M  V30 625 1 502 664
M  V30 626 1 502 693
M  V30 627 1 503 522
M  V30 628 1 503 663
M  V30 629 1 503 681
M  V30 630 1 504 528
M  V30 631 1 504 674
M  V30 632 1 504 684
M  V30 633 1 505 525
M  V30 634 1 505 678
M  V30 635 1 505 682
M  V30 636 1 506 530
M  V30 637 1 506 677
M  V30 638 1 506 697
M  V30 639 1 507 523
M  V30 640 1 507 666
M  V30 641 1 507 699
M  V30 642 1 508 539
M  V30 643 1 508 680
M  V30 644 1 508 686
M  V30 645 1 509 526
M  V30 646 1 509 669
M  V30 647 1 509 691
M  V30 648 1 510 536
M  V30 649 1 510 671
M  V30 650 1 510 692
M  V30 651 1 511 532
M  V30 652 1 511 668
M  V30 653 1 511 695
M  V30 654 1 512 538
M  V30 655 1 512 662
M  V30 656 1 512 700
M  V30 657 1 513 533
M  V30 658 1 513 679
M  V30 659 1 513 689
M  V30 660 1 514 529
M  V30 661 1 514 675
M  V30 662 1 514 683
M  V30 663 1 515 537
M  V30 664 1 515 670
M  V30 665 1 515 688
M  V30 666 1 516 527
M  V30 667 1 516 676
M  V30 668 1 516 694
M  V30 669 1 517 534
M  V30 670 1 517 667
M  V30 671 1 517 687
M  V30 672 1 518 540
M  V30 673 1 518 661
M  V30 674 1 518 685
M  V30 675 1 519 531
M  V30 676 1 519 673
M  V30 677 1 519 696
M  V30 678 1 520 524
M  V30 679 1 520 665
M  V30 680 1 520 690
M  V30 681 2 521 551
M  V30 682 1 521 569
M  V30 683 2 522 548
M  V30 684 1 522 572
M  V30 685 2 523 555
M  V30 686 1 523 568
M  V30 687 2 524 560
M  V30 688 1 524 564
M  V30 689 2 525 553
M  V30 690 1 525 579
M  V30 691 2 526 547
M  V30 692 1 526 573
M  V30 693 2 527 549
M  V30 694 1 527 574
M  V30 695 2 528 542
M  V30 696 1 528 563
M  V30 697 2 529 558
M  V30 698 1 529 575
M  V30 699 2 530 550
M  V30 700 1 530 570
M  V30 701 2 531 544
M  V30 702 1 531 571
M  V30 703 2 532 554
M  V30 704 1 532 561
M  V30 705 2 533 543
M  V30 706 1 533 577
M  V30 707 2 534 559
M  V30 708 1 534 565
M  V30 709 2 535 545
M  V30 710 1 535 567
M  V30 711 2 536 552
M  V30 712 1 536 578
M  V30 713 2 537 557
M  V30 714 1 537 580
M  V30 715 2 538 541
M  V30 716 1 538 562
M  V30 717 2 539 546
M  V30 718 1 539 576
M  V30 719 2 540 556
M  V30 720 1 540 566
M  V30 721 1 701 725
M  V30 722 1 701 937
M  V30 723 1 702 738
M  V30 724 1 702 927
M  V30 725 1 703 726
M  V30 726 1 703 924
M  V30 727 1 704 736
M  V30 728 1 704 925
M  V30 729 1 705 732
M  V30 730 1 705 929
M  V30 731 1 706 729
M  V30 732 1 706 940
M  V30 733 1 707 730
M  V30 734 1 707 931
M  V30 735 1 708 737
M  V30 736 1 708 921
M  V30 737 1 709 727
M  V30 738 1 709 934
M  V30 739 1 710 739
M  V30 740 1 710 939
M  V30 741 1 711 721
M  V30 742 1 711 922
M  V30 743 1 712 731
M  V30 744 1 712 930
M  V30 745 1 713 735
M  V30 746 1 713 935
M  V30 747 1 714 728
M  V30 748 1 714 932
M  V30 749 1 715 724
M  V30 750 1 715 928
M  V30 751 1 716 723
M  V30 752 1 716 938
M  V30 753 1 717 733
M  V30 754 1 717 933
M  V30 755 1 718 722
M  V30 756 1 718 923
M  V30 757 1 719 740
M  V30 758 1 719 936
M  V30 759 1 720 734
M  V30 760 1 720 926
M  V30 761 1 721 753
M  V30 762 1 721 791
M  V30 763 1 721 946
M  V30 764 1 722 749
M  V30 765 1 722 786
M  V30 766 1 722 948
M  V30 767 1 723 760
M  V30 768 1 723 792
M  V30 769 1 723 958
M  V30 770 1 724 748
M  V30 771 1 724 781
M  V30 772 1 724 949
M  V30 773 1 725 757
M  V30 774 1 725 797
M  V30 775 1 725 957
M  V30 776 1 726 742
M  V30 777 1 726 798
M  V30 778 1 726 950
M  V30 779 1 727 755
M  V30 780 1 727 788
M  V30 781 1 727 944
M  V30 782 1 728 741
M  V30 783 1 728 782
M  V30 784 1 728 960
M  V30 785 1 729 751
M  V30 786 1 729 794
M  V30 787 1 729 955
M  V30 788 1 730 750
M  V30 789 1 730 795
M  V30 790 1 730 952
M  V30 791 1 731 756
M  V30 792 1 731 793
M  V30 793 1 731 951
M  V30 794 1 732 743
M  V30 795 1 732 783
M  V30 796 1 732 947
M  V30 797 1 733 745
M  V30 798 1 733 785
M  V30 799 1 733 956
M  V30 800 1 734 746
M  V30 801 1 734 790
M  V30 802 1 734 942
M  V30 803 1 735 744
M  V30 804 1 735 787
M  V30 805 1 735 953
M  V30 806 1 736 754
M  V30 807 1 736 789
M  V30 808 1 736 945
M  V30 809 1 737 747
M  V30 810 1 737 784
M  V30 811 1 737 943
M  V30 812 1 738 752
M  V30 813 1 738 800
M  V30 814 1 738 941
M  V30 815 1 739 759
M  V30 816 1 739 799
M  V30 817 1 739 959
M  V30 818 1 740 758
M  V30 819 1 740 796
M  V30 820 1 740 954
M  V30 821 2 741 768
M  V30 822 1 741 1112
M  V30 823 2 742 765
M  V30 824 1 742 1116
M  V30 825 2 743 763
M  V30 826 1 743 1102
M  V30 827 2 744 769
M  V30 828 1 744 1113
M  V30 829 2 745 777
M  V30 830 1 745 1111
M  V30 831 2 746 767
M  V30 832 1 746 1106
M  V30 833 2 747 761
M  V30 834 1 747 1104
M  V30 835 2 748 770
M  V30 836 1 748 1115
M  V30 837 2 749 764
M  V30 838 1 749 1118
M  V30 839 2 750 775
M  V30 840 1 750 1109
M  V30 841 2 751 773
M  V30 842 1 751 1108
M  V30 843 2 752 771
M  V30 844 1 752 1107
M  V30 845 2 753 766
M  V30 846 1 753 1114
M  V30 847 2 754 780
M  V30 848 1 754 1117
M  V30 849 2 755 774
M  V30 850 1 755 1105
M  V30 851 2 756 772
M  V30 852 1 756 1110
M  V30 853 2 757 762
M  V30 854 1 757 1103
M  V30 855 2 758 778
M  V30 856 1 758 1119
M  V30 857 2 759 779
M  V30 858 1 759 1101
M  V30 859 2 760 776
M  V30 860 1 760 1120
M  V30 861 1 781 814
M  V30 862 1 781 970
M  V30 863 1 781 986
M  V30 864 1 782 808
M  V30 865 1 782 966
M  V30 866 1 782 994
M  V30 867 1 783 802
M  V30 868 1 783 962
M  V30 869 1 783 983
M  V30 870 1 784 816
M  V30 871 1 784 967
M  V30 872 1 784 996
M  V30 873 1 785 815
M  V30 874 1 785 975
M  V30 875 1 785 1000
M  V30 876 1 786 803
M  V30 877 1 786 968
M  V30 878 1 786 985
M  V30 879 1 787 807
M  V30 880 1 787 973
M  V30 881 1 787 992
M  V30 882 1 788 804
M  V30 883 1 788 974
M  V30 884 1 788 987
M  V30 885 1 789 811
M  V30 886 1 789 961
M  V30 887 1 789 989
M  V30 888 1 790 805
M  V30 889 1 790 964
M  V30 890 1 790 982
M  V30 891 1 791 801
M  V30 892 1 791 976
M  V30 893 1 791 998
M  V30 894 1 792 806
M  V30 895 1 792 979
M  V30 896 1 792 991
M  V30 897 1 793 812
M  V30 898 1 793 971
M  V30 899 1 793 995
M  V30 900 1 794 813
M  V30 901 1 794 977
M  V30 902 1 794 993
M  V30 903 1 795 818
M  V30 904 1 795 972
M  V30 905 1 795 997
M  V30 906 1 796 820
M  V30 907 1 796 978
M  V30 908 1 796 999
M  V30 909 1 797 817
M  V30 910 1 797 969
M  V30 911 1 797 988
M  V30 912 1 798 810
M  V30 913 1 798 963
M  V30 914 1 798 984
M  V30 915 1 799 819
M  V30 916 1 799 980
M  V30 917 1 799 981
M  V30 918 1 800 809
M  V30 919 1 800 965
M  V30 920 1 800 990
M  V30 921 2 801 831
M  V30 922 1 801 848
M  V30 923 2 802 829
M  V30 924 1 802 855
M  V30 925 2 803 832
M  V30 926 1 803 847
M  V30 927 2 804 825
M  V30 928 1 804 841
M  V30 929 2 805 824
M  V30 930 1 805 843
M  V30 931 2 806 836
M  V30 932 1 806 857
M  V30 933 2 807 828
M  V30 934 1 807 845
M  V30 935 2 808 826
M  V30 936 1 808 842
M  V30 937 2 809 830
M  V30 938 1 809 846
M  V30 939 2 810 822
M  V30 940 1 810 854
M  V30 941 2 811 837
M  V30 942 1 811 853
M  V30 943 2 812 833
M  V30 944 1 812 860
M  V30 945 2 813 834
M  V30 946 1 813 850
M  V30 947 2 814 823
M  V30 948 1 814 849
M  V30 949 2 815 827
M  V30 950 1 815 852
M  V30 951 2 816 821
M  V30 952 1 816 859
M  V30 953 2 817 839
M  V30 954 1 817 844
M  V30 955 2 818 835
M  V30 956 1 818 851
M  V30 957 2 819 840
M  V30 958 1 819 858
M  V30 959 2 820 838
M  V30 960 1 820 856
M  V30 961 1 821 875
M  V30 962 1 821 1014
M  V30 963 1 822 861
M  V30 964 1 822 1007
M  V30 965 1 823 868
M  V30 966 1 823 1003
M  V30 967 1 824 865
M  V30 968 1 824 1013
M  V30 969 1 825 874
M  V30 970 1 825 1004
M  V30 971 1 826 867
M  V30 972 1 826 1018
M  V30 973 1 827 876
M  V30 974 1 827 1019
M  V30 975 1 828 866
M  V30 976 1 828 1012
M  V30 977 1 829 877
M  V30 978 1 829 1008
M  V30 979 1 830 863
M  V30 980 1 830 1011
M  V30 981 1 831 870
M  V30 982 1 831 1009
M  V30 983 1 832 862
M  V30 984 1 832 1005
M  V30 985 1 833 872
M  V30 986 1 833 1017
M  V30 987 1 834 878
M  V30 988 1 834 1015
M  V30 989 1 835 873
M  V30 990 1 835 1016
M  V30 991 1 836 869
M  V30 992 1 836 1002
M  V30 993 1 837 864
M  V30 994 1 837 1006
M  V30 995 1 838 880
M  V30 996 1 838 1020
M  V30 997 1 839 871
M  V30 998 1 839 1010
M  V30 999 1 840 879
M  V30 1000 1 840 1001
M  V30 1001 2 841 885
M  V30 1002 1 841 1034
M  V30 1003 2 842 892
M  V30 1004 1 842 1039
M  V30 1005 2 843 893
M  V30 1006 1 843 1028
M  V30 1007 2 844 896
M  V30 1008 1 844 1027
M  V30 1009 2 845 886
M  V30 1010 1 845 1021
M  V30 1011 2 846 882
M  V30 1012 1 846 1022
M  V30 1013 2 847 883
M  V30 1014 1 847 1031
M  V30 1015 2 848 881
M  V30 1016 1 848 1035
M  V30 1017 2 849 898
M  V30 1018 1 849 1025
M  V30 1019 2 850 888
M  V30 1020 1 850 1030
M  V30 1021 2 851 897
M  V30 1022 1 851 1037
M  V30 1023 2 852 895
M  V30 1024 1 852 1040
M  V30 1025 2 853 887
M  V30 1026 1 853 1033
M  V30 1027 2 854 894
M  V30 1028 1 854 1032
M  V30 1029 2 855 891
M  V30 1030 1 855 1036
M  V30 1031 2 856 899
M  V30 1032 1 856 1026
M  V30 1033 2 857 884
M  V30 1034 1 857 1023
M  V30 1035 2 858 900
M  V30 1036 1 858 1029
M  V30 1037 2 859 890
M  V30 1038 1 859 1024
M  V30 1039 2 860 889
M  V30 1040 1 860 1038
M  V30 1041 2 861 905
M  V30 1042 1 861 1042
M  V30 1043 2 862 902
M  V30 1044 1 862 1058
M  V30 1045 2 863 909
M  V30 1046 1 863 1053
M  V30 1047 2 864 910
M  V30 1048 1 864 1043
M  V30 1049 2 865 907
M  V30 1050 1 865 1046
M  V30 1051 2 866 914
M  V30 1052 1 866 1056
M  V30 1053 2 867 913
M  V30 1054 1 867 1050
M  V30 1055 2 868 915
M  V30 1056 1 868 1045
M  V30 1057 2 869 919
M  V30 1058 1 869 1060
M  V30 1059 2 870 906
M  V30 1060 1 870 1047
M  V30 1061 2 871 901
M  V30 1062 1 871 1054
M  V30 1063 2 872 911
M  V30 1064 1 872 1049
M  V30 1065 2 873 912
M  V30 1066 1 873 1052
M  V30 1067 2 874 903
M  V30 1068 1 874 1057
M  V30 1069 2 875 908
M  V30 1070 1 875 1041
M  V30 1071 2 876 904
M  V30 1072 1 876 1051
M  V30 1073 2 877 918
M  V30 1074 1 877 1055
M  V30 1075 2 878 916
M  V30 1076 1 878 1048
M  V30 1077 2 879 920
M  V30 1078 1 879 1044
M  V30 1079 2 880 917
M  V30 1080 1 880 1059
M  V30 1081 1 881 906
M  V30 1082 1 881 1066
M  V30 1083 1 882 909
M  V30 1084 1 882 1061
M  V30 1085 1 883 902
M  V30 1086 1 883 1076
M  V30 1087 1 884 919
M  V30 1088 1 884 1063
M  V30 1089 1 885 903
M  V30 1090 1 885 1068
M  V30 1091 1 886 914
M  V30 1092 1 886 1072
M  V30 1093 1 887 910
M  V30 1094 1 887 1062
M  V30 1095 1 888 916
M  V30 1096 1 888 1077
M  V30 1097 1 889 911
M  V30 1098 1 889 1071
M  V30 1099 1 890 908
M  V30 1100 1 890 1074
M  V30 1101 1 891 918
M  V30 1102 1 891 1080
M  V30 1103 1 892 913
M  V30 1104 1 892 1067
M  V30 1105 1 893 907
M  V30 1106 1 893 1078
M  V30 1107 1 894 905
M  V30 1108 1 894 1064
M  V30 1109 1 895 904
M  V30 1110 1 895 1075
M  V30 1111 1 896 901
M  V30 1112 1 896 1069
M  V30 1113 1 897 912
M  V30 1114 1 897 1070
M  V30 1115 1 898 915
M  V30 1116 1 898 1065
M  V30 1117 1 899 917
M  V30 1118 1 899 1079
M  V30 1119 1 900 920
M  V30 1120 1 900 1073
M  V30 1121 1 901 1087
M  V30 1122 1 902 1094
M  V30 1123 1 903 1083
M  V30 1124 1 904 1096
M  V30 1125 1 905 1093
M  V30 1126 1 906 1085
M  V30 1127 1 907 1097
M  V30 1128 1 908 1081
M  V30 1129 1 909 1088
M  V30 1130 1 910 1086
M  V30 1131 1 911 1095
M  V30 1132 1 912 1089
M  V30 1133 1 913 1082
M  V30 1134 1 914 1090
M  V30 1135 1 915 1098
M  V30 1136 1 916 1091
M  V30 1137 1 917 1099
M  V30 1138 1 918 1092
M  V30 1139 1 919 1100
M  V30 1140 1 920 1084
M  V30 1141 1 1101 1137
M  V30 1142 1 1101 1297
M  V30 1143 1 1102 1127
M  V30 1144 1 1102 1283
M  V30 1145 1 1103 1125
M  V30 1146 1 1103 1286
M  V30 1147 1 1104 1124
M  V30 1148 1 1104 1281
M  V30 1149 1 1105 1122
M  V30 1150 1 1105 1282
M  V30 1151 1 1106 1133
M  V30 1152 1 1106 1292
M  V30 1153 1 1107 1126
M  V30 1154 1 1107 1287
M  V30 1155 1 1108 1128
M  V30 1156 1 1108 1290
M  V30 1157 1 1109 1130
M  V30 1158 1 1109 1291
M  V30 1159 1 1110 1131
M  V30 1160 1 1110 1295
M  V30 1161 1 1111 1135
M  V30 1162 1 1111 1296
M  V30 1163 1 1112 1138
M  V30 1164 1 1112 1284
M  V30 1165 1 1113 1132
M  V30 1166 1 1113 1288
M  V30 1167 1 1114 1123
M  V30 1168 1 1114 1285
M  V30 1169 1 1115 1129
M  V30 1170 1 1115 1298
M  V30 1171 1 1116 1121
M  V30 1172 1 1116 1293
M  V30 1173 1 1117 1136
M  V30 1174 1 1117 1289
M  V30 1175 1 1118 1134
M  V30 1176 1 1118 1294
M  V30 1177 1 1119 1139
M  V30 1178 1 1119 1299
M  V30 1179 1 1120 1140
M  V30 1180 1 1120 1300
M  V30 1181 1 1121 1146
M  V30 1182 1 1121 1194
M  V30 1183 1 1121 1307
M  V30 1184 1 1122 1156
M  V30 1185 1 1122 1184
M  V30 1186 1 1122 1303
M  V30 1187 1 1123 1151
M  V30 1188 1 1123 1197
M  V30 1189 1 1123 1308
M  V30 1190 1 1124 1143
M  V30 1191 1 1124 1181
M  V30 1192 1 1124 1314
M  V30 1193 1 1125 1144
M  V30 1194 1 1125 1183
M  V30 1195 1 1125 1319
M  V30 1196 1 1126 1147
M  V30 1197 1 1126 1188
M  V30 1198 1 1126 1310
M  V30 1199 1 1127 1142
M  V30 1200 1 1127 1182
M  V30 1201 1 1127 1302
M  V30 1202 1 1128 1157
M  V30 1203 1 1128 1196
M  V30 1204 1 1128 1311
M  V30 1205 1 1129 1149
M  V30 1206 1 1129 1193
M  V30 1207 1 1129 1315
M  V30 1208 1 1130 1152
M  V30 1209 1 1130 1189
M  V30 1210 1 1130 1312
M  V30 1211 1 1131 1153
M  V30 1212 1 1131 1191
M  V30 1213 1 1131 1313
M  V30 1214 1 1132 1150
M  V30 1215 1 1132 1186
M  V30 1216 1 1132 1305
M  V30 1217 1 1133 1141
M  V30 1218 1 1133 1190
M  V30 1219 1 1133 1317
M  V30 1220 1 1134 1154
M  V30 1221 1 1134 1185
M  V30 1222 1 1134 1301
M  V30 1223 1 1135 1148
M  V30 1224 1 1135 1195
M  V30 1225 1 1135 1304
M  V30 1226 1 1136 1145
M  V30 1227 1 1136 1198
M  V30 1228 1 1136 1309
M  V30 1229 1 1137 1155
M  V30 1230 1 1137 1187
M  V30 1231 1 1137 1306
M  V30 1232 1 1138 1158
M  V30 1233 1 1138 1200
M  V30 1234 1 1138 1316
M  V30 1235 1 1139 1159
M  V30 1236 1 1139 1192
M  V30 1237 1 1139 1318
M  V30 1238 1 1140 1160
M  V30 1239 1 1140 1199
M  V30 1240 1 1140 1320
M  V30 1241 2 1141 1172
M  V30 1242 1 1141 1548
M  V30 1243 2 1142 1174
M  V30 1244 1 1142 1543
M  V30 1245 2 1143 1161
M  V30 1246 1 1143 1542
M  V30 1247 2 1144 1165
M  V30 1248 1 1144 1544
M  V30 1249 2 1145 1175
M  V30 1250 1 1145 1559
M  V30 1251 2 1146 1163
M  V30 1252 1 1146 1546
M  V30 1253 2 1147 1166
M  V30 1254 1 1147 1550
M  V30 1255 2 1148 1171
M  V30 1256 1 1148 1555
M  V30 1257 2 1149 1168
M  V30 1258 1 1149 1549
M  V30 1259 2 1150 1167
M  V30 1260 1 1150 1551
M  V30 1261 2 1151 1173
M  V30 1262 1 1151 1547
M  V30 1263 2 1152 1170
M  V30 1264 1 1152 1554
M  V30 1265 2 1153 1177
M  V30 1266 1 1153 1556
M  V30 1267 2 1154 1162
M  V30 1268 1 1154 1553
M  V30 1269 2 1155 1164
M  V30 1270 1 1155 1541
M  V30 1271 2 1156 1176
M  V30 1272 1 1156 1558
M  V30 1273 2 1157 1169
M  V30 1274 1 1157 1552
M  V30 1275 2 1158 1179
M  V30 1276 1 1158 1545
M  V30 1277 2 1159 1178
M  V30 1278 1 1159 1557
M  V30 1279 2 1160 1180
M  V30 1280 1 1160 1560
M  V30 1281 1 1181 1201
M  V30 1282 1 1181 1321
M  V30 1283 1 1181 1341
M  V30 1284 1 1182 1202
M  V30 1285 1 1182 1334
M  V30 1286 1 1182 1353
M  V30 1287 1 1183 1209
M  V30 1288 1 1183 1328
M  V30 1289 1 1183 1347
M  V30 1290 1 1184 1206
M  V30 1291 1 1184 1323
M  V30 1292 1 1184 1358
M  V30 1293 1 1185 1204
M  V30 1294 1 1185 1333
M  V30 1295 1 1185 1345
M  V30 1296 1 1186 1215
M  V30 1297 1 1186 1330
M  V30 1298 1 1186 1342
M  V30 1299 1 1187 1210
M  V30 1300 1 1187 1336
M  V30 1301 1 1187 1344
M  V30 1302 1 1188 1207
M  V30 1303 1 1188 1329
M  V30 1304 1 1188 1356
M  V30 1305 1 1189 1216
M  V30 1306 1 1189 1331
M  V30 1307 1 1189 1349
M  V30 1308 1 1190 1212
M  V30 1309 1 1190 1324
M  V30 1310 1 1190 1350
M  V30 1311 1 1191 1217
M  V30 1312 1 1191 1338
M  V30 1313 1 1191 1355
M  V30 1314 1 1192 1219
M  V30 1315 1 1192 1339
M  V30 1316 1 1192 1357
M  V30 1317 1 1193 1208
M  V30 1318 1 1193 1325
M  V30 1319 1 1193 1348
M  V30 1320 1 1194 1205
M  V30 1321 1 1194 1326
M  V30 1322 1 1194 1360
M  V30 1323 1 1195 1218
M  V30 1324 1 1195 1335
M  V30 1325 1 1195 1352
M  V30 1326 1 1196 1213
M  V30 1327 1 1196 1337
M  V30 1328 1 1196 1351
M  V30 1329 1 1197 1214
M  V30 1330 1 1197 1327
M  V30 1331 1 1197 1346
M  V30 1332 1 1198 1211
M  V30 1333 1 1198 1332
M  V30 1334 1 1198 1343
M  V30 1335 1 1199 1220
M  V30 1336 1 1199 1340
M  V30 1337 1 1199 1359
M  V30 1338 1 1200 1203
M  V30 1339 1 1200 1322
M  V30 1340 1 1200 1354
M  V30 1341 1 1201 1239
M  V30 1342 1 1201 1361
M  V30 1343 1 1201 1397
M  V30 1344 1 1202 1224
M  V30 1345 1 1202 1363
M  V30 1346 1 1202 1383
M  V30 1347 1 1203 1225
M  V30 1348 1 1203 1362
M  V30 1349 1 1203 1396
M  V30 1350 1 1204 1231
M  V30 1351 1 1204 1374
M  V30 1352 1 1204 1381
M  V30 1353 1 1205 1228
M  V30 1354 1 1205 1373
M  V30 1355 1 1205 1394
M  V30 1356 1 1206 1234
M  V30 1357 1 1206 1377
M  V30 1358 1 1206 1395
M  V30 1359 1 1207 1227
M  V30 1360 1 1207 1368
M  V30 1361 1 1207 1389
M  V30 1362 1 1208 1226
M  V30 1363 1 1208 1369
M  V30 1364 1 1208 1386
M  V30 1365 1 1209 1236
M  V30 1366 1 1209 1366
M  V30 1367 1 1209 1387
M  V30 1368 1 1210 1221
M  V30 1369 1 1210 1364
M  V30 1370 1 1210 1385
M  V30 1371 1 1211 1222
M  V30 1372 1 1211 1372
M  V30 1373 1 1211 1382
M  V30 1374 1 1212 1223
M  V30 1375 1 1212 1367
M  V30 1376 1 1212 1390
M  V30 1377 1 1213 1232
M  V30 1378 1 1213 1370
M  V30 1379 1 1213 1391
M  V30 1380 1 1214 1229
M  V30 1381 1 1214 1365
M  V30 1382 1 1214 1384
M  V30 1383 1 1215 1230
M  V30 1384 1 1215 1378
M  V30 1385 1 1215 1388
M  V30 1386 1 1216 1233
M  V30 1387 1 1216 1371
M  V30 1388 1 1216 1392
M  V30 1389 1 1217 1235
M  V30 1390 1 1217 1376
M  V30 1391 1 1217 1393
M  V30 1392 1 1218 1237
M  V30 1393 1 1218 1375
M  V30 1394 1 1218 1399
M  V30 1395 1 1219 1238
M  V30 1396 1 1219 1379
M  V30 1397 1 1219 1398
M  V30 1398 1 1220 1240
M  V30 1399 1 1220 1380
M  V30 1400 1 1220 1400
M  V30 1401 1 1221 1244
M  V30 1402 1 1221 1404
M  V30 1403 1 1221 1424
M  V30 1404 1 1222 1245
M  V30 1405 1 1222 1406
M  V30 1406 1 1222 1425
M  V30 1407 1 1223 1243
M  V30 1408 1 1223 1412
M  V30 1409 1 1223 1428
M  V30 1410 1 1224 1242
M  V30 1411 1 1224 1414
M  V30 1412 1 1224 1423
M  V30 1413 1 1225 1260
M  V30 1414 1 1225 1402
M  V30 1415 1 1225 1422
M  V30 1416 1 1226 1254
M  V30 1417 1 1226 1409
M  V30 1418 1 1226 1433
M  V30 1419 1 1227 1249
M  V30 1420 1 1227 1410
M  V30 1421 1 1227 1439
M  V30 1422 1 1228 1246
M  V30 1423 1 1228 1407
M  V30 1424 1 1228 1427
M  V30 1425 1 1229 1247
M  V30 1426 1 1229 1408
M  V30 1427 1 1229 1426
M  V30 1428 1 1230 1250
M  V30 1429 1 1230 1405
M  V30 1430 1 1230 1429
M  V30 1431 1 1231 1253
M  V30 1432 1 1231 1413
M  V30 1433 1 1231 1436
M  V30 1434 1 1232 1251
M  V30 1435 1 1232 1415
M  V30 1436 1 1232 1430
M  V30 1437 1 1233 1252
M  V30 1438 1 1233 1416
M  V30 1439 1 1233 1432
M  V30 1440 1 1234 1257
M  V30 1441 1 1234 1403
M  V30 1442 1 1234 1431
M  V30 1443 1 1235 1255
M  V30 1444 1 1235 1418
M  V30 1445 1 1235 1438
M  V30 1446 1 1236 1248
M  V30 1447 1 1236 1411
M  V30 1448 1 1236 1437
M  V30 1449 1 1237 1256
M  V30 1450 1 1237 1417
M  V30 1451 1 1237 1435
M  V30 1452 1 1238 1258
M  V30 1453 1 1238 1419
M  V30 1454 1 1238 1434
M  V30 1455 1 1239 1241
M  V30 1456 1 1239 1401
M  V30 1457 1 1239 1421
M  V30 1458 1 1240 1259
M  V30 1459 1 1240 1420
M  V30 1460 1 1240 1440
M  V30 1461 1 1241 1261
M  V30 1462 1 1241 1441
M  V30 1463 1 1241 1464
M  V30 1464 1 1242 1274
M  V30 1465 1 1242 1443
M  V30 1466 1 1242 1463
M  V30 1467 1 1243 1272
M  V30 1468 1 1243 1448
M  V30 1469 1 1243 1469
M  V30 1470 1 1244 1264
M  V30 1471 1 1244 1444
M  V30 1472 1 1244 1461
M  V30 1473 1 1245 1275
M  V30 1474 1 1245 1450
M  V30 1475 1 1245 1462
M  V30 1476 1 1246 1263
M  V30 1477 1 1246 1445
M  V30 1478 1 1246 1465
M  V30 1479 1 1247 1266
M  V30 1480 1 1247 1446
M  V30 1481 1 1247 1468
M  V30 1482 1 1248 1277
M  V30 1483 1 1248 1447
M  V30 1484 1 1248 1467
M  V30 1485 1 1249 1279
M  V30 1486 1 1249 1452
M  V30 1487 1 1249 1470
M  V30 1488 1 1250 1268
M  V30 1489 1 1250 1457
M  V30 1490 1 1250 1475
M  V30 1491 1 1251 1278
M  V30 1492 1 1251 1451
M  V30 1493 1 1251 1471
M  V30 1494 1 1252 1269
M  V30 1495 1 1252 1455
M  V30 1496 1 1252 1472
M  V30 1497 1 1253 1265
M  V30 1498 1 1253 1453
M  V30 1499 1 1253 1479
M  V30 1500 1 1254 1276
M  V30 1501 1 1254 1449
M  V30 1502 1 1254 1477
M  V30 1503 1 1255 1270
M  V30 1504 1 1255 1458
M  V30 1505 1 1255 1474
M  V30 1506 1 1256 1271
M  V30 1507 1 1256 1456
M  V30 1508 1 1256 1473
M  V30 1509 1 1257 1262
M  V30 1510 1 1257 1442
M  V30 1511 1 1257 1466
M  V30 1512 1 1258 1267
M  V30 1513 1 1258 1459
M  V30 1514 1 1258 1478
M  V30 1515 1 1259 1280
M  V30 1516 1 1259 1460
M  V30 1517 1 1259 1480
M  V30 1518 1 1260 1273
M  V30 1519 1 1260 1454
M  V30 1520 1 1260 1476
M  V30 1521 1 1261 1481
M  V30 1522 1 1261 1501
M  V30 1523 1 1261 1521
M  V30 1524 1 1262 1496
M  V30 1525 1 1262 1507
M  V30 1526 1 1262 1523
M  V30 1527 1 1263 1493
M  V30 1528 1 1263 1514
M  V30 1529 1 1263 1527
M  V30 1530 1 1264 1484
M  V30 1531 1 1264 1516
M  V30 1532 1 1264 1522
M  V30 1533 1 1265 1499
M  V30 1534 1 1265 1518
M  V30 1535 1 1265 1525
M  V30 1536 1 1266 1485
M  V30 1537 1 1266 1513
M  V30 1538 1 1266 1528
M  V30 1539 1 1267 1498
M  V30 1540 1 1267 1517
M  V30 1541 1 1267 1539
M  V30 1542 1 1268 1488
M  V30 1543 1 1268 1508
M  V30 1544 1 1268 1532
M  V30 1545 1 1269 1491
M  V30 1546 1 1269 1511
M  V30 1547 1 1269 1534
M  V30 1548 1 1270 1495
M  V30 1549 1 1270 1515
M  V30 1550 1 1270 1538
M  V30 1551 1 1271 1492
M  V30 1552 1 1271 1512
M  V30 1553 1 1271 1536
M  V30 1554 1 1272 1487
M  V30 1555 1 1272 1505
M  V30 1556 1 1272 1530
M  V30 1557 1 1273 1494
M  V30 1558 1 1273 1502
M  V30 1559 1 1273 1526
M  V30 1560 1 1274 1482
M  V30 1561 1 1274 1503
M  V30 1562 1 1274 1524
M  V30 1563 1 1275 1483
M  V30 1564 1 1275 1510
M  V30 1565 1 1275 1535
M  V30 1566 1 1276 1490
M  V30 1567 1 1276 1506
M  V30 1568 1 1276 1537
M  V30 1569 1 1277 1486
M  V30 1570 1 1277 1504
M  V30 1571 1 1277 1529
M  V30 1572 1 1278 1497
M  V30 1573 1 1278 1520
M  V30 1574 1 1278 1533
M  V30 1575 1 1279 1489
M  V30 1576 1 1279 1509
M  V30 1577 1 1279 1531
M  V30 1578 1 1280 1500
M  V30 1579 1 1280 1519
M  V30 1580 1 1280 1540
M  V30 1581 1 1541 1578
M  V30 1582 1 1541 1762
M  V30 1583 1 1542 1561
M  V30 1584 1 1542 1761
M  V30 1585 1 1543 1563
M  V30 1586 1 1543 1764
M  V30 1587 1 1544 1574
M  V30 1588 1 1544 1768
M  V30 1589 1 1545 1566
M  V30 1590 1 1545 1771
M  V30 1591 1 1546 1565
M  V30 1592 1 1546 1766
M  V30 1593 1 1547 1567
M  V30 1594 1 1547 1767
M  V30 1595 1 1548 1568
M  V30 1596 1 1548 1769
M  V30 1597 1 1549 1570
M  V30 1598 1 1549 1772
M  V30 1599 1 1550 1569
M  V30 1600 1 1550 1770
M  V30 1601 1 1551 1571
M  V30 1602 1 1551 1774
M  V30 1603 1 1552 1572
M  V30 1604 1 1552 1775
M  V30 1605 1 1553 1564
M  V30 1606 1 1553 1765
M  V30 1607 1 1554 1573
M  V30 1608 1 1554 1776
M  V30 1609 1 1555 1575
M  V30 1610 1 1555 1777
M  V30 1611 1 1556 1577
M  V30 1612 1 1556 1779
M  V30 1613 1 1557 1579
M  V30 1614 1 1557 1778
M  V30 1615 1 1558 1562
M  V30 1616 1 1558 1763
M  V30 1617 1 1559 1576
M  V30 1618 1 1559 1773
M  V30 1619 1 1560 1580
M  V30 1620 1 1560 1780
M  V30 1621 1 1561 1581
M  V30 1622 1 1561 1639
M  V30 1623 1 1561 1781
M  V30 1624 1 1562 1594
M  V30 1625 1 1562 1622
M  V30 1626 1 1562 1785
M  V30 1627 1 1563 1582
M  V30 1628 1 1563 1623
M  V30 1629 1 1563 1787
M  V30 1630 1 1564 1584
M  V30 1631 1 1564 1630
M  V30 1632 1 1564 1782
M  V30 1633 1 1565 1599
M  V30 1634 1 1565 1624
M  V30 1635 1 1565 1788
M  V30 1636 1 1566 1585
M  V30 1637 1 1566 1627
M  V30 1638 1 1566 1792
M  V30 1639 1 1567 1586
M  V30 1640 1 1567 1625
M  V30 1641 1 1567 1789
M  V30 1642 1 1568 1587
M  V30 1643 1 1568 1628
M  V30 1644 1 1568 1790
M  V30 1645 1 1569 1589
M  V30 1646 1 1569 1629
M  V30 1647 1 1569 1791
M  V30 1648 1 1570 1588
M  V30 1649 1 1570 1631
M  V30 1650 1 1570 1793
M  V30 1651 1 1571 1590
M  V30 1652 1 1571 1632
M  V30 1653 1 1571 1794
M  V30 1654 1 1572 1591
M  V30 1655 1 1572 1633
M  V30 1656 1 1572 1795
M  V30 1657 1 1573 1592
M  V30 1658 1 1573 1635
M  V30 1659 1 1573 1796
M  V30 1660 1 1574 1583
M  V30 1661 1 1574 1621
M  V30 1662 1 1574 1783
M  V30 1663 1 1575 1595
M  V30 1664 1 1575 1626
M  V30 1665 1 1575 1797
M  V30 1666 1 1576 1596
M  V30 1667 1 1576 1634
M  V30 1668 1 1576 1786
M  V30 1669 1 1577 1597
M  V30 1670 1 1577 1636
M  V30 1671 1 1577 1799
M  V30 1672 1 1578 1598
M  V30 1673 1 1578 1638
M  V30 1674 1 1578 1784
M  V30 1675 1 1579 1593
M  V30 1676 1 1579 1637
M  V30 1677 1 1579 1798
M  V30 1678 1 1580 1600
M  V30 1679 1 1580 1640
M  V30 1680 1 1580 1800
M  V30 1681 2 1581 1601
M  V30 1682 1 1581 1944
M  V30 1683 2 1582 1604
M  V30 1684 1 1582 1945
M  V30 1685 2 1583 1609
M  V30 1686 1 1583 1941
M  V30 1687 2 1584 1605
M  V30 1688 1 1584 1943
M  V30 1689 2 1585 1607
M  V30 1690 1 1585 1951
M  V30 1691 2 1586 1608
M  V30 1692 1 1586 1947
M  V30 1693 2 1587 1610
M  V30 1694 1 1587 1948
M  V30 1695 2 1588 1612
M  V30 1696 1 1588 1950
M  V30 1697 2 1589 1611
M  V30 1698 1 1589 1949
M  V30 1699 2 1590 1614
M  V30 1700 1 1590 1952
M  V30 1701 2 1591 1615
M  V30 1702 1 1591 1953
M  V30 1703 2 1592 1616
M  V30 1704 1 1592 1954
M  V30 1705 2 1593 1619
M  V30 1706 1 1593 1956
M  V30 1707 2 1594 1603
M  V30 1708 1 1594 1942
M  V30 1709 2 1595 1617
M  V30 1710 1 1595 1955
M  V30 1711 2 1596 1613
M  V30 1712 1 1596 1957
M  V30 1713 2 1597 1618
M  V30 1714 1 1597 1959
M  V30 1715 2 1598 1602
M  V30 1716 1 1598 1958
M  V30 1717 2 1599 1606
M  V30 1718 1 1599 1946
M  V30 1719 2 1600 1620
M  V30 1720 1 1600 1960
M  V30 1721 1 1621 1648
M  V30 1722 1 1621 1807
M  V30 1723 1 1621 1828
M  V30 1724 1 1622 1643
M  V30 1725 1 1622 1802
M  V30 1726 1 1622 1821
M  V30 1727 1 1623 1644
M  V30 1728 1 1623 1803
M  V30 1729 1 1623 1823
M  V30 1730 1 1624 1645
M  V30 1731 1 1624 1805
M  V30 1732 1 1624 1825
M  V30 1733 1 1625 1646
M  V30 1734 1 1625 1806
M  V30 1735 1 1625 1826
M  V30 1736 1 1626 1656
M  V30 1737 1 1626 1816
M  V30 1738 1 1626 1835
M  V30 1739 1 1627 1647
M  V30 1740 1 1627 1810
M  V30 1741 1 1627 1830
M  V30 1742 1 1628 1649
M  V30 1743 1 1628 1808
M  V30 1744 1 1628 1827
M  V30 1745 1 1629 1650
M  V30 1746 1 1629 1809
M  V30 1747 1 1629 1839
M  V30 1748 1 1630 1654
M  V30 1749 1 1630 1804
M  V30 1750 1 1630 1824
M  V30 1751 1 1631 1651
M  V30 1752 1 1631 1811
M  V30 1753 1 1631 1829
M  V30 1754 1 1632 1652
M  V30 1755 1 1632 1812
M  V30 1756 1 1632 1831
M  V30 1757 1 1633 1653
M  V30 1758 1 1633 1813
M  V30 1759 1 1633 1832
M  V30 1760 1 1634 1658
M  V30 1761 1 1634 1814
M  V30 1762 1 1634 1834
M  V30 1763 1 1635 1655
M  V30 1764 1 1635 1815
M  V30 1765 1 1635 1833
M  V30 1766 1 1636 1657
M  V30 1767 1 1636 1819
M  V30 1768 1 1636 1837
M  V30 1769 1 1637 1659
M  V30 1770 1 1637 1817
M  V30 1771 1 1637 1836
M  V30 1772 1 1638 1642
M  V30 1773 1 1638 1818
M  V30 1774 1 1638 1822
M  V30 1775 1 1639 1641
M  V30 1776 1 1639 1801
M  V30 1777 1 1639 1838
M  V30 1778 1 1640 1660
M  V30 1779 1 1640 1820
M  V30 1780 1 1640 1840
M  V30 1781 2 1641 1661
M  V30 1782 1 1641 1681
M  V30 1783 2 1642 1678
M  V30 1784 1 1642 1682
M  V30 1785 2 1643 1662
M  V30 1786 1 1643 1683
M  V30 1787 2 1644 1663
M  V30 1788 1 1644 1684
M  V30 1789 2 1645 1674
M  V30 1790 1 1645 1687
M  V30 1791 2 1646 1666
M  V30 1792 1 1646 1688
M  V30 1793 2 1647 1665
M  V30 1794 1 1647 1699
M  V30 1795 2 1648 1667
M  V30 1796 1 1648 1689
M  V30 1797 2 1649 1669
M  V30 1798 1 1649 1690
M  V30 1799 2 1650 1677
M  V30 1800 1 1650 1691
M  V30 1801 2 1651 1671
M  V30 1802 1 1651 1692
M  V30 1803 2 1652 1672
M  V30 1804 1 1652 1693
M  V30 1805 2 1653 1673
M  V30 1806 1 1653 1694
M  V30 1807 2 1654 1664
M  V30 1808 1 1654 1685
M  V30 1809 2 1655 1675
M  V30 1810 1 1655 1695
M  V30 1811 2 1656 1676
M  V30 1812 1 1656 1696
M  V30 1813 2 1657 1679
M  V30 1814 1 1657 1697
M  V30 1815 2 1658 1668
M  V30 1816 1 1658 1686
M  V30 1817 2 1659 1670
M  V30 1818 1 1659 1698
M  V30 1819 2 1660 1680
M  V30 1820 1 1660 1700
M  V30 1821 1 1661 1718
M  V30 1822 1 1661 1841
M  V30 1823 1 1662 1715
M  V30 1824 1 1662 1843
M  V30 1825 1 1663 1703
M  V30 1826 1 1663 1844
M  V30 1827 1 1664 1701
M  V30 1828 1 1664 1845
M  V30 1829 1 1665 1706
M  V30 1830 1 1665 1852
M  V30 1831 1 1666 1705
M  V30 1832 1 1666 1847
M  V30 1833 1 1667 1719
M  V30 1834 1 1667 1848
M  V30 1835 1 1668 1710
M  V30 1836 1 1668 1853
M  V30 1837 1 1669 1707
M  V30 1838 1 1669 1849
M  V30 1839 1 1670 1717
M  V30 1840 1 1670 1858
M  V30 1841 1 1671 1709
M  V30 1842 1 1671 1851
M  V30 1843 1 1672 1711
M  V30 1844 1 1672 1854
M  V30 1845 1 1673 1712
M  V30 1846 1 1673 1855
M  V30 1847 1 1674 1704
M  V30 1848 1 1674 1846
M  V30 1849 1 1675 1713
M  V30 1850 1 1675 1856
M  V30 1851 1 1676 1714
M  V30 1852 1 1676 1857
M  V30 1853 1 1677 1708
M  V30 1854 1 1677 1850
M  V30 1855 1 1678 1702
M  V30 1856 1 1678 1842
M  V30 1857 1 1679 1716
M  V30 1858 1 1679 1859
M  V30 1859 1 1680 1720
M  V30 1860 1 1680 1860
M  V30 1861 2 1681 1721
M  V30 1862 1 1681 1861
M  V30 1863 2 1682 1738
M  V30 1864 1 1682 1878
M  V30 1865 2 1683 1722
M  V30 1866 1 1683 1862
M  V30 1867 2 1684 1723
M  V30 1868 1 1684 1863
M  V30 1869 2 1685 1724
M  V30 1870 1 1685 1877
M  V30 1871 2 1686 1725
M  V30 1872 1 1686 1864
M  V30 1873 2 1687 1734
M  V30 1874 1 1687 1866
M  V30 1875 2 1688 1726
M  V30 1876 1 1688 1867
M  V30 1877 2 1689 1736
M  V30 1878 1 1689 1870
M  V30 1879 2 1690 1728
M  V30 1880 1 1690 1868
M  V30 1881 2 1691 1729
M  V30 1882 1 1691 1875
M  V30 1883 2 1692 1730
M  V30 1884 1 1692 1869
M  V30 1885 2 1693 1731
M  V30 1886 1 1693 1871
M  V30 1887 2 1694 1732
M  V30 1888 1 1694 1872
M  V30 1889 2 1695 1733
M  V30 1890 1 1695 1873
M  V30 1891 2 1696 1735
M  V30 1892 1 1696 1874
M  V30 1893 2 1697 1737
M  V30 1894 1 1697 1879
M  V30 1895 2 1698 1739
M  V30 1896 1 1698 1876
M  V30 1897 2 1699 1727
M  V30 1898 1 1699 1865
M  V30 1899 2 1700 1740
M  V30 1900 1 1700 1880
M  V30 1901 2 1701 1744
M  V30 1902 1 1701 1894
M  V30 1903 2 1702 1742
M  V30 1904 1 1702 1898
M  V30 1905 2 1703 1743
M  V30 1906 1 1703 1884
M  V30 1907 2 1704 1746
M  V30 1908 1 1704 1885
M  V30 1909 2 1705 1754
M  V30 1910 1 1705 1886
M  V30 1911 2 1706 1749
M  V30 1912 1 1706 1891
M  V30 1913 2 1707 1748
M  V30 1914 1 1707 1888
M  V30 1915 2 1708 1758
M  V30 1916 1 1708 1889
M  V30 1917 2 1709 1750
M  V30 1918 1 1709 1890
M  V30 1919 2 1710 1747
M  V30 1920 1 1710 1883
M  V30 1921 2 1711 1751
M  V30 1922 1 1711 1892
M  V30 1923 2 1712 1752
M  V30 1924 1 1712 1893
M  V30 1925 2 1713 1753
M  V30 1926 1 1713 1895
M  V30 1927 2 1714 1756
M  V30 1928 1 1714 1896
M  V30 1929 2 1715 1759
M  V30 1930 1 1715 1882
M  V30 1931 2 1716 1757
M  V30 1932 1 1716 1899
M  V30 1933 2 1717 1745
M  V30 1934 1 1717 1897
M  V30 1935 2 1718 1741
M  V30 1936 1 1718 1881
M  V30 1937 2 1719 1755
M  V30 1938 1 1719 1887
M  V30 1939 2 1720 1760
M  V30 1940 1 1720 1900
M  V30 1941 1 1721 1741
M  V30 1942 1 1721 1901
M  V30 1943 1 1722 1759
M  V30 1944 1 1722 1909
M  V30 1945 1 1723 1743
M  V30 1946 1 1723 1903
M  V30 1947 1 1724 1744
M  V30 1948 1 1724 1904
M  V30 1949 1 1725 1747
M  V30 1950 1 1725 1910
M  V30 1951 1 1726 1754
M  V30 1952 1 1726 1914
M  V30 1953 1 1727 1749
M  V30 1954 1 1727 1911
M  V30 1955 1 1728 1748
M  V30 1956 1 1728 1907
M  V30 1957 1 1729 1758
M  V30 1958 1 1729 1906
M  V30 1959 1 1730 1750
M  V30 1960 1 1730 1908
M  V30 1961 1 1731 1751
M  V30 1962 1 1731 1912
M  V30 1963 1 1732 1752
M  V30 1964 1 1732 1913
M  V30 1965 1 1733 1753
M  V30 1966 1 1733 1915
M  V30 1967 1 1734 1746
M  V30 1968 1 1734 1902
M  V30 1969 1 1735 1756
M  V30 1970 1 1735 1916
M  V30 1971 1 1736 1755
M  V30 1972 1 1736 1905
M  V30 1973 1 1737 1757
M  V30 1974 1 1737 1919
M  V30 1975 1 1738 1742
M  V30 1976 1 1738 1918
M  V30 1977 1 1739 1745
M  V30 1978 1 1739 1917
M  V30 1979 1 1740 1760
M  V30 1980 1 1740 1920
M  V30 1981 1 1741 1921
M  V30 1982 1 1742 1922
M  V30 1983 1 1743 1924
M  V30 1984 1 1744 1925
M  V30 1985 1 1745 1938
M  V30 1986 1 1746 1926
M  V30 1987 1 1747 1932
M  V30 1988 1 1748 1929
M  V30 1989 1 1749 1933
M  V30 1990 1 1750 1931
M  V30 1991 1 1751 1934
M  V30 1992 1 1752 1935
M  V30 1993 1 1753 1936
M  V30 1994 1 1754 1927
M  V30 1995 1 1755 1928
M  V30 1996 1 1756 1937
M  V30 1997 1 1757 1939
M  V30 1998 1 1758 1930
M  V30 1999 1 1759 1923
M  V30 2000 1 1760 1940
M  V30 2001 1 1941 1966
M  V30 2002 1 1941 2130
M  V30 2003 1 1942 1962
M  V30 2004 1 1942 2123
M  V30 2005 1 1943 1964
M  V30 2006 1 1943 2126
M  V30 2007 1 1944 1961
M  V30 2008 1 1944 2122
M  V30 2009 1 1945 1963
M  V30 2010 1 1945 2125
M  V30 2011 1 1946 1974
M  V30 2012 1 1946 2127
M  V30 2013 1 1947 1965
M  V30 2014 1 1947 2129
M  V30 2015 1 1948 1967
M  V30 2016 1 1948 2132
M  V30 2017 1 1949 1968
M  V30 2018 1 1949 2131
M  V30 2019 1 1950 1969
M  V30 2020 1 1950 2133
M  V30 2021 1 1951 1970
M  V30 2022 1 1951 2136
M  V30 2023 1 1952 1971
M  V30 2024 1 1952 2135
M  V30 2025 1 1953 1972
M  V30 2026 1 1953 2134
M  V30 2027 1 1954 1973
M  V30 2028 1 1954 2137
M  V30 2029 1 1955 1975
M  V30 2030 1 1955 2139
M  V30 2031 1 1956 1977
M  V30 2032 1 1956 2140
M  V30 2033 1 1957 1976
M  V30 2034 1 1957 2128
M  V30 2035 1 1958 1978
M  V30 2036 1 1958 2124
M  V30 2037 1 1959 1979
M  V30 2038 1 1959 2138
M  V30 2039 1 1960 1980
M  V30 2040 1 1960 2121
M  V30 2041 1 1961 1998
M  V30 2042 1 1961 2022
M  V30 2043 1 1961 2142
M  V30 2044 1 1962 1982
M  V30 2045 1 1962 2026
M  V30 2046 1 1962 2143
M  V30 2047 1 1963 1984
M  V30 2048 1 1963 2025
M  V30 2049 1 1963 2145
M  V30 2050 1 1964 1994
M  V30 2051 1 1964 2032
M  V30 2052 1 1964 2147
M  V30 2053 1 1965 1985
M  V30 2054 1 1965 2028
M  V30 2055 1 1965 2150
M  V30 2056 1 1966 1986
M  V30 2057 1 1966 2023
M  V30 2058 1 1966 2153
M  V30 2059 1 1967 1987
M  V30 2060 1 1967 2030
M  V30 2061 1 1967 2148
M  V30 2062 1 1968 1989
M  V30 2063 1 1968 2029
M  V30 2064 1 1968 2146
M  V30 2065 1 1969 1988
M  V30 2066 1 1969 2031
M  V30 2067 1 1969 2152
M  V30 2068 1 1970 1990
M  V30 2069 1 1970 2035
M  V30 2070 1 1970 2156
M  V30 2071 1 1971 1991
M  V30 2072 1 1971 2033
M  V30 2073 1 1971 2155
M  V30 2074 1 1972 1992
M  V30 2075 1 1972 2034
M  V30 2076 1 1972 2154
M  V30 2077 1 1973 1993
M  V30 2078 1 1973 2037
M  V30 2079 1 1973 2157
M  V30 2080 1 1974 1999
M  V30 2081 1 1974 2027
M  V30 2082 1 1974 2149
M  V30 2083 1 1975 1995
M  V30 2084 1 1975 2039
M  V30 2085 1 1975 2159
M  V30 2086 1 1976 1996
M  V30 2087 1 1976 2036
M  V30 2088 1 1976 2151
M  V30 2089 1 1977 1997
M  V30 2090 1 1977 2040
M  V30 2091 1 1977 2160
M  V30 2092 1 1978 1983
M  V30 2093 1 1978 2024
M  V30 2094 1 1978 2144
M  V30 2095 1 1979 2000
M  V30 2096 1 1979 2021
M  V30 2097 1 1979 2158
M  V30 2098 1 1980 1981
M  V30 2099 1 1980 2038
M  V30 2100 1 1980 2141
M  V30 2101 2 1981 2001
M  V30 2102 1 1981 2241
M  V30 2103 2 1982 2004
M  V30 2104 1 1982 2244
M  V30 2105 2 1983 2003
M  V30 2106 1 1983 2245
M  V30 2107 2 1984 2005
M  V30 2108 1 1984 2246
M  V30 2109 2 1985 2008
M  V30 2110 1 1985 2249
M  V30 2111 2 1986 2009
M  V30 2112 1 1986 2250
M  V30 2113 2 1987 2010
M  V30 2114 1 1987 2252
M  V30 2115 2 1988 2012
M  V30 2116 1 1988 2253
M  V30 2117 2 1989 2011
M  V30 2118 1 1989 2251
M  V30 2119 2 1990 2014
M  V30 2120 1 1990 2259
M  V30 2121 2 1991 2015
M  V30 2122 1 1991 2256
M  V30 2123 2 1992 2016
M  V30 2124 1 1992 2255
M  V30 2125 2 1993 2017
M  V30 2126 1 1993 2257
M  V30 2127 2 1994 2006
M  V30 2128 1 1994 2247
M  V30 2129 2 1995 2018
M  V30 2130 1 1995 2258
M  V30 2131 2 1996 2013
M  V30 2132 1 1996 2254
M  V30 2133 2 1997 2019
M  V30 2134 1 1997 2260
M  V30 2135 2 1998 2002
M  V30 2136 1 1998 2242
M  V30 2137 2 1999 2007
M  V30 2138 1 1999 2248
M  V30 2139 2 2000 2020
M  V30 2140 1 2000 2243
M  V30 2141 1 2021 2049
M  V30 2142 1 2021 2162
M  V30 2143 1 2021 2183
M  V30 2144 1 2022 2050
M  V30 2145 1 2022 2163
M  V30 2146 1 2022 2198
M  V30 2147 1 2023 2053
M  V30 2148 1 2023 2170
M  V30 2149 1 2023 2190
M  V30 2150 1 2024 2052
M  V30 2151 1 2024 2165
M  V30 2152 1 2024 2185
M  V30 2153 1 2025 2054
M  V30 2154 1 2025 2166
M  V30 2155 1 2025 2186
M  V30 2156 1 2026 2051
M  V30 2157 1 2026 2164
M  V30 2158 1 2026 2184
M  V30 2159 1 2027 2056
M  V30 2160 1 2027 2168
M  V30 2161 1 2027 2188
M  V30 2162 1 2028 2057
M  V30 2163 1 2028 2169
M  V30 2164 1 2028 2189
M  V30 2165 1 2029 2058
M  V30 2166 1 2029 2171
M  V30 2167 1 2029 2191
M  V30 2168 1 2030 2059
M  V30 2169 1 2030 2172
M  V30 2170 1 2030 2199
M  V30 2171 1 2031 2060
M  V30 2172 1 2031 2173
M  V30 2173 1 2031 2192
M  V30 2174 1 2032 2055
M  V30 2175 1 2032 2167
M  V30 2176 1 2032 2182
M  V30 2177 1 2033 2043
M  V30 2178 1 2033 2176
M  V30 2179 1 2033 2194
M  V30 2180 1 2034 2042
M  V30 2181 1 2034 2175
M  V30 2182 1 2034 2193
M  V30 2183 1 2035 2044
M  V30 2184 1 2035 2177
M  V30 2185 1 2035 2196
M  V30 2186 1 2036 2041
M  V30 2187 1 2036 2174
M  V30 2188 1 2036 2187
M  V30 2189 1 2037 2045
M  V30 2190 1 2037 2178
M  V30 2191 1 2037 2195
M  V30 2192 1 2038 2048
M  V30 2193 1 2038 2161
M  V30 2194 1 2038 2181
M  V30 2195 1 2039 2046
M  V30 2196 1 2039 2179
M  V30 2197 1 2039 2197
M  V30 2198 1 2040 2047
M  V30 2199 1 2040 2180
M  V30 2200 1 2040 2200
M  V30 2201 1 2041 2063
M  V30 2202 1 2041 2213
M  V30 2203 1 2041 2228
M  V30 2204 1 2042 2072
M  V30 2205 1 2042 2214
M  V30 2206 1 2042 2233
M  V30 2207 1 2043 2073
M  V30 2208 1 2043 2215
M  V30 2209 1 2043 2234
M  V30 2210 1 2044 2074
M  V30 2211 1 2044 2217
M  V30 2212 1 2044 2236
M  V30 2213 1 2045 2076
M  V30 2214 1 2045 2216
M  V30 2215 1 2045 2235
M  V30 2216 1 2046 2079
M  V30 2217 1 2046 2219
M  V30 2218 1 2046 2237
M  V30 2219 1 2047 2080
M  V30 2220 1 2047 2220
M  V30 2221 1 2047 2239
M  V30 2222 1 2048 2061
M  V30 2223 1 2048 2201
M  V30 2224 1 2048 2221
M  V30 2225 1 2049 2078
M  V30 2226 1 2049 2202
M  V30 2227 1 2049 2222
M  V30 2228 1 2050 2062
M  V30 2229 1 2050 2218
M  V30 2230 1 2050 2238
M  V30 2231 1 2051 2065
M  V30 2232 1 2051 2203
M  V30 2233 1 2051 2223
M  V30 2234 1 2052 2064
M  V30 2235 1 2052 2204
M  V30 2236 1 2052 2224
M  V30 2237 1 2053 2077
M  V30 2238 1 2053 2209
M  V30 2239 1 2053 2230
M  V30 2240 1 2054 2066
M  V30 2241 1 2054 2205
M  V30 2242 1 2054 2225
M  V30 2243 1 2055 2067
M  V30 2244 1 2055 2206
M  V30 2245 1 2055 2227
M  V30 2246 1 2056 2069
M  V30 2247 1 2056 2207
M  V30 2248 1 2056 2226
M  V30 2249 1 2057 2068
M  V30 2250 1 2057 2208
M  V30 2251 1 2057 2229
M  V30 2252 1 2058 2070
M  V30 2253 1 2058 2210
M  V30 2254 1 2058 2240
M  V30 2255 1 2059 2075
M  V30 2256 1 2059 2211
M  V30 2257 1 2059 2231
M  V30 2258 1 2060 2071
M  V30 2259 1 2060 2212
M  V30 2260 1 2060 2232
M  V30 2261 2 2061 2081
M  V30 2262 1 2061 2101
M  V30 2263 2 2062 2083
M  V30 2264 1 2062 2103
M  V30 2265 2 2063 2094
M  V30 2266 1 2063 2110
M  V30 2267 2 2064 2085
M  V30 2268 1 2064 2105
M  V30 2269 2 2065 2084
M  V30 2270 1 2065 2104
M  V30 2271 2 2066 2086
M  V30 2272 1 2066 2106
M  V30 2273 2 2067 2087
M  V30 2274 1 2067 2118
M  V30 2275 2 2068 2089
M  V30 2276 1 2068 2108
M  V30 2277 2 2069 2088
M  V30 2278 1 2069 2107
M  V30 2279 2 2070 2091
M  V30 2280 1 2070 2109
M  V30 2281 2 2071 2093
M  V30 2282 1 2071 2111
M  V30 2283 2 2072 2095
M  V30 2284 1 2072 2113
M  V30 2285 2 2073 2096
M  V30 2286 1 2073 2114
M  V30 2287 2 2074 2097
M  V30 2288 1 2074 2115
M  V30 2289 2 2075 2092
M  V30 2290 1 2075 2112
M  V30 2291 2 2076 2098
M  V30 2292 1 2076 2116
M  V30 2293 2 2077 2090
M  V30 2294 1 2077 2120
M  V30 2295 2 2078 2082
M  V30 2296 1 2078 2102
M  V30 2297 2 2079 2099
M  V30 2298 1 2079 2117
M  V30 2299 2 2080 2100
M  V30 2300 1 2080 2119
M  V30 2301 1 2241 2261
M  V30 2302 1 2241 2461
M  V30 2303 1 2242 2278
M  V30 2304 1 2242 2478
M  V30 2305 1 2243 2262
M  V30 2306 1 2243 2463
M  V30 2307 1 2244 2263
M  V30 2308 1 2244 2464
M  V30 2309 1 2245 2264
M  V30 2310 1 2245 2465
M  V30 2311 1 2246 2265
M  V30 2312 1 2246 2466
M  V30 2313 1 2247 2280
M  V30 2314 1 2247 2468
M  V30 2315 1 2248 2267
M  V30 2316 1 2248 2469
M  V30 2317 1 2249 2268
M  V30 2318 1 2249 2470
M  V30 2319 1 2250 2272
M  V30 2320 1 2250 2471
M  V30 2321 1 2251 2269
M  V30 2322 1 2251 2467
M  V30 2323 1 2252 2270
M  V30 2324 1 2252 2472
M  V30 2325 1 2253 2271
M  V30 2326 1 2253 2473
M  V30 2327 1 2254 2266
M  V30 2328 1 2254 2462
M  V30 2329 1 2255 2273
M  V30 2330 1 2255 2474
M  V30 2331 1 2256 2274
M  V30 2332 1 2256 2475
M  V30 2333 1 2257 2275
M  V30 2334 1 2257 2476
M  V30 2335 1 2258 2276
M  V30 2336 1 2258 2477
M  V30 2337 1 2259 2277
M  V30 2338 1 2259 2480
M  V30 2339 1 2260 2279
M  V30 2340 1 2260 2479
M  V30 2341 1 2261 2281
M  V30 2342 1 2261 2321
M  V30 2343 1 2261 2481
M  V30 2344 1 2262 2282
M  V30 2345 1 2262 2323
M  V30 2346 1 2262 2483
M  V30 2347 1 2263 2283
M  V30 2348 1 2263 2324
M  V30 2349 1 2263 2484
M  V30 2350 1 2264 2284
M  V30 2351 1 2264 2325
M  V30 2352 1 2264 2485
M  V30 2353 1 2265 2285
M  V30 2354 1 2265 2326
M  V30 2355 1 2265 2486
M  V30 2356 1 2266 2287
M  V30 2357 1 2266 2338
M  V30 2358 1 2266 2494
M  V30 2359 1 2267 2288
M  V30 2360 1 2267 2328
M  V30 2361 1 2267 2488
M  V30 2362 1 2268 2289
M  V30 2363 1 2268 2329
M  V30 2364 1 2268 2489
M  V30 2365 1 2269 2291
M  V30 2366 1 2269 2331
M  V30 2367 1 2269 2491
M  V30 2368 1 2270 2292
M  V30 2369 1 2270 2332
M  V30 2370 1 2270 2492
M  V30 2371 1 2271 2293
M  V30 2372 1 2271 2333
M  V30 2373 1 2271 2493
M  V30 2374 1 2272 2290
M  V30 2375 1 2272 2330
M  V30 2376 1 2272 2490
M  V30 2377 1 2273 2294
M  V30 2378 1 2273 2334
M  V30 2379 1 2273 2495
M  V30 2380 1 2274 2295
M  V30 2381 1 2274 2335
M  V30 2382 1 2274 2496
M  V30 2383 1 2275 2296
M  V30 2384 1 2275 2336
M  V30 2385 1 2275 2497
M  V30 2386 1 2276 2297
M  V30 2387 1 2276 2337
M  V30 2388 1 2276 2498
M  V30 2389 1 2277 2299
M  V30 2390 1 2277 2339
M  V30 2391 1 2277 2500
M  V30 2392 1 2278 2298
M  V30 2393 1 2278 2322
M  V30 2394 1 2278 2482
M  V30 2395 1 2279 2300
M  V30 2396 1 2279 2340
M  V30 2397 1 2279 2499
M  V30 2398 1 2280 2286
M  V30 2399 1 2280 2327
M  V30 2400 1 2280 2487
M  V30 2401 2 2281 2301
M  V30 2402 1 2281 2641
M  V30 2403 2 2282 2302
M  V30 2404 1 2282 2645
M  V30 2405 2 2283 2303
M  V30 2406 1 2283 2644
M  V30 2407 2 2284 2305
M  V30 2408 1 2284 2646
M  V30 2409 2 2285 2306
M  V30 2410 1 2285 2647
M  V30 2411 2 2286 2307
M  V30 2412 1 2286 2648
M  V30 2413 2 2287 2313
M  V30 2414 1 2287 2655
M  V30 2415 2 2288 2304
M  V30 2416 1 2288 2649
M  V30 2417 2 2289 2308
M  V30 2418 1 2289 2650
M  V30 2419 2 2290 2309
M  V30 2420 1 2290 2651
M  V30 2421 2 2291 2310
M  V30 2422 1 2291 2652
M  V30 2423 2 2292 2311
M  V30 2424 1 2292 2653
M  V30 2425 2 2293 2312
M  V30 2426 1 2293 2654
M  V30 2427 2 2294 2314
M  V30 2428 1 2294 2656
M  V30 2429 2 2295 2315
M  V30 2430 1 2295 2657
M  V30 2431 2 2296 2316
M  V30 2432 1 2296 2658
M  V30 2433 2 2297 2317
M  V30 2434 1 2297 2659
M  V30 2435 2 2298 2318
M  V30 2436 1 2298 2642
M  V30 2437 2 2299 2319
M  V30 2438 1 2299 2643
M  V30 2439 2 2300 2320
M  V30 2440 1 2300 2660
M  V30 2441 1 2321 2341
M  V30 2442 1 2321 2501
M  V30 2443 1 2321 2521
M  V30 2444 1 2322 2358
M  V30 2445 1 2322 2518
M  V30 2446 1 2322 2538
M  V30 2447 1 2323 2342
M  V30 2448 1 2323 2502
M  V30 2449 1 2323 2522
M  V30 2450 1 2324 2343
M  V30 2451 1 2324 2503
M  V30 2452 1 2324 2523
M  V30 2453 1 2325 2344
M  V30 2454 1 2325 2504
M  V30 2455 1 2325 2524
M  V30 2456 1 2326 2345
M  V30 2457 1 2326 2505
M  V30 2458 1 2326 2525
M  V30 2459 1 2327 2346
M  V30 2460 1 2327 2506
M  V30 2461 1 2327 2526
M  V30 2462 1 2328 2348
M  V30 2463 1 2328 2507
M  V30 2464 1 2328 2527
M  V30 2465 1 2329 2349
M  V30 2466 1 2329 2508
M  V30 2467 1 2329 2529
M  V30 2468 1 2330 2347
M  V30 2469 1 2330 2519
M  V30 2470 1 2330 2530
M  V30 2471 1 2331 2350
M  V30 2472 1 2331 2509
M  V30 2473 1 2331 2531
M  V30 2474 1 2332 2351
M  V30 2475 1 2332 2511
M  V30 2476 1 2332 2532
M  V30 2477 1 2333 2352
M  V30 2478 1 2333 2512
M  V30 2479 1 2333 2533
M  V30 2480 1 2334 2353
M  V30 2481 1 2334 2513
M  V30 2482 1 2334 2534
M  V30 2483 1 2335 2354
M  V30 2484 1 2335 2514
M  V30 2485 1 2335 2535
M  V30 2486 1 2336 2355
M  V30 2487 1 2336 2515
M  V30 2488 1 2336 2536
M  V30 2489 1 2337 2356
M  V30 2490 1 2337 2516
M  V30 2491 1 2337 2537
M  V30 2492 1 2338 2360
M  V30 2493 1 2338 2510
M  V30 2494 1 2338 2528
M  V30 2495 1 2339 2357
M  V30 2496 1 2339 2520
M  V30 2497 1 2339 2540
M  V30 2498 1 2340 2359
M  V30 2499 1 2340 2517
M  V30 2500 1 2340 2539
M  V30 2501 2 2341 2361
M  V30 2502 1 2341 2381
M  V30 2503 2 2342 2362
M  V30 2504 1 2342 2382
M  V30 2505 2 2343 2363
M  V30 2506 1 2343 2383
M  V30 2507 2 2344 2364
M  V30 2508 1 2344 2384
M  V30 2509 2 2345 2365
M  V30 2510 1 2345 2385
M  V30 2511 2 2346 2366
M  V30 2512 1 2346 2386
M  V30 2513 2 2347 2369
M  V30 2514 1 2347 2388
M  V30 2515 2 2348 2367
M  V30 2516 1 2348 2400
M  V30 2517 2 2349 2368
M  V30 2518 1 2349 2387
M  V30 2519 2 2350 2370
M  V30 2520 1 2350 2389
M  V30 2521 2 2351 2371
M  V30 2522 1 2351 2390
M  V30 2523 2 2352 2372
M  V30 2524 1 2352 2391
M  V30 2525 2 2353 2373
M  V30 2526 1 2353 2392
M  V30 2527 2 2354 2374
M  V30 2528 1 2354 2393
M  V30 2529 2 2355 2375
M  V30 2530 1 2355 2394
M  V30 2531 2 2356 2376
M  V30 2532 1 2356 2395
M  V30 2533 2 2357 2379
M  V30 2534 1 2357 2397
M  V30 2535 2 2358 2378
M  V30 2536 1 2358 2398
M  V30 2537 2 2359 2380
M  V30 2538 1 2359 2399
M  V30 2539 2 2360 2377
M  V30 2540 1 2360 2396
M  V30 2541 1 2361 2401
M  V30 2542 1 2361 2558
M  V30 2543 1 2362 2403
M  V30 2544 1 2362 2543
M  V30 2545 1 2363 2404
M  V30 2546 1 2363 2544
M  V30 2547 1 2364 2405
M  V30 2548 1 2364 2545
M  V30 2549 1 2365 2406
M  V30 2550 1 2365 2547
M  V30 2551 1 2366 2407
M  V30 2552 1 2366 2548
M  V30 2553 1 2367 2408
M  V30 2554 1 2367 2549
M  V30 2555 1 2368 2409
M  V30 2556 1 2368 2550
M  V30 2557 1 2369 2410
M  V30 2558 1 2369 2551
M  V30 2559 1 2370 2411
M  V30 2560 1 2370 2546
M  V30 2561 1 2371 2412
M  V30 2562 1 2371 2553
M  V30 2563 1 2372 2413
M  V30 2564 1 2372 2554
M  V30 2565 1 2373 2415
M  V30 2566 1 2373 2555
M  V30 2567 1 2374 2416
M  V30 2568 1 2374 2556
M  V30 2569 1 2375 2417
M  V30 2570 1 2375 2557
M  V30 2571 1 2376 2418
M  V30 2572 1 2376 2559
M  V30 2573 1 2377 2414
M  V30 2574 1 2377 2552
M  V30 2575 1 2378 2402
M  V30 2576 1 2378 2542
M  V30 2577 1 2379 2419
M  V30 2578 1 2379 2541
M  V30 2579 1 2380 2420
M  V30 2580 1 2380 2560
M  V30 2581 2 2381 2421
M  V30 2582 1 2381 2562
M  V30 2583 2 2382 2423
M  V30 2584 1 2382 2564
M  V30 2585 2 2383 2424
M  V30 2586 1 2383 2565
M  V30 2587 2 2384 2425
M  V30 2588 1 2384 2566
M  V30 2589 2 2385 2426
M  V30 2590 1 2385 2567
M  V30 2591 2 2386 2427
M  V30 2592 1 2386 2568
M  V30 2593 2 2387 2429
M  V30 2594 1 2387 2570
M  V30 2595 2 2388 2422
M  V30 2596 1 2388 2571
M  V30 2597 2 2389 2430
M  V30 2598 1 2389 2572
M  V30 2599 2 2390 2431
M  V30 2600 1 2390 2573
M  V30 2601 2 2391 2432
M  V30 2602 1 2391 2574
M  V30 2603 2 2392 2433
M  V30 2604 1 2392 2576
M  V30 2605 2 2393 2435
M  V30 2606 1 2393 2577
M  V30 2607 2 2394 2436
M  V30 2608 1 2394 2578
M  V30 2609 2 2395 2437
M  V30 2610 1 2395 2579
M  V30 2611 2 2396 2434
M  V30 2612 1 2396 2575
M  V30 2613 2 2397 2439
M  V30 2614 1 2397 2561
M  V30 2615 2 2398 2438
M  V30 2616 1 2398 2563
M  V30 2617 2 2399 2440
M  V30 2618 1 2399 2580
M  V30 2619 2 2400 2428
M  V30 2620 1 2400 2569
M  V30 2621 2 2401 2441
M  V30 2622 1 2401 2598
M  V30 2623 2 2402 2458
M  V30 2624 1 2402 2582
M  V30 2625 2 2403 2442
M  V30 2626 1 2403 2583
M  V30 2627 2 2404 2443
M  V30 2628 1 2404 2584
M  V30 2629 2 2405 2444
M  V30 2630 1 2405 2586
M  V30 2631 2 2406 2445
M  V30 2632 1 2406 2587
M  V30 2633 2 2407 2446
M  V30 2634 1 2407 2588
M  V30 2635 2 2408 2447
M  V30 2636 1 2408 2589
M  V30 2637 2 2409 2448
M  V30 2638 1 2409 2590
M  V30 2639 2 2410 2449
M  V30 2640 1 2410 2591
M  V30 2641 2 2411 2450
M  V30 2642 1 2411 2592
M  V30 2643 2 2412 2451
M  V30 2644 1 2412 2593
M  V30 2645 2 2413 2452
M  V30 2646 1 2413 2594
M  V30 2647 2 2414 2453
M  V30 2648 1 2414 2585
M  V30 2649 2 2415 2454
M  V30 2650 1 2415 2595
M  V30 2651 2 2416 2455
M  V30 2652 1 2416 2596
M  V30 2653 2 2417 2456
M  V30 2654 1 2417 2597
M  V30 2655 2 2418 2457
M  V30 2656 1 2418 2599
M  V30 2657 2 2419 2460
M  V30 2658 1 2419 2581
M  V30 2659 2 2420 2459
M  V30 2660 1 2420 2600
M  V30 2661 1 2421 2441
M  V30 2662 1 2421 2618
M  V30 2663 1 2422 2449
M  V30 2664 1 2422 2611
M  V30 2665 1 2423 2442
M  V30 2666 1 2423 2603
M  V30 2667 1 2424 2443
M  V30 2668 1 2424 2604
M  V30 2669 1 2425 2444
M  V30 2670 1 2425 2605
M  V30 2671 1 2426 2445
M  V30 2672 1 2426 2606
M  V30 2673 1 2427 2446
M  V30 2674 1 2427 2607
M  V30 2675 1 2428 2447
M  V30 2676 1 2428 2609
M  V30 2677 1 2429 2448
M  V30 2678 1 2429 2610
M  V30 2679 1 2430 2450
M  V30 2680 1 2430 2612
M  V30 2681 1 2431 2451
M  V30 2682 1 2431 2613
M  V30 2683 1 2432 2452
M  V30 2684 1 2432 2614
M  V30 2685 1 2433 2454
M  V30 2686 1 2433 2615
M  V30 2687 1 2434 2453
M  V30 2688 1 2434 2608
M  V30 2689 1 2435 2455
M  V30 2690 1 2435 2616
M  V30 2691 1 2436 2456
M  V30 2692 1 2436 2617
M  V30 2693 1 2437 2457
M  V30 2694 1 2437 2619
M  V30 2695 1 2438 2458
M  V30 2696 1 2438 2602
M  V30 2697 1 2439 2460
M  V30 2698 1 2439 2601
M  V30 2699 1 2440 2459
M  V30 2700 1 2440 2620
M  V30 2701 1 2441 2621
M  V30 2702 1 2442 2624
M  V30 2703 1 2443 2623
M  V30 2704 1 2444 2625
M  V30 2705 1 2445 2626
M  V30 2706 1 2446 2627
M  V30 2707 1 2447 2629
M  V30 2708 1 2448 2630
M  V30 2709 1 2449 2631
M  V30 2710 1 2450 2640
M  V30 2711 1 2451 2632
M  V30 2712 1 2452 2633
M  V30 2713 1 2453 2628
M  V30 2714 1 2454 2634
M  V30 2715 1 2455 2635
M  V30 2716 1 2456 2636
M  V30 2717 1 2457 2637
M  V30 2718 1 2458 2622
M  V30 2719 1 2459 2639
M  V30 2720 1 2460 2638
M  V30 2721 1 2641 2661
M  V30 2722 1 2641 2821
M  V30 2723 1 2642 2678
M  V30 2724 1 2642 2838
M  V30 2725 1 2643 2662
M  V30 2726 1 2643 2822
M  V30 2727 1 2644 2663
M  V30 2728 1 2644 2823
M  V30 2729 1 2645 2664
M  V30 2730 1 2645 2824
M  V30 2731 1 2646 2665
M  V30 2732 1 2646 2825
M  V30 2733 1 2647 2666
M  V30 2734 1 2647 2826
M  V30 2735 1 2648 2667
M  V30 2736 1 2648 2827
M  V30 2737 1 2649 2669
M  V30 2738 1 2649 2828
M  V30 2739 1 2650 2670
M  V30 2740 1 2650 2829
M  V30 2741 1 2651 2671
M  V30 2742 1 2651 2830
M  V30 2743 1 2652 2672
M  V30 2744 1 2652 2831
M  V30 2745 1 2653 2673
M  V30 2746 1 2653 2832
M  V30 2747 1 2654 2674
M  V30 2748 1 2654 2833
M  V30 2749 1 2655 2668
M  V30 2750 1 2655 2835
M  V30 2751 1 2656 2675
M  V30 2752 1 2656 2834
M  V30 2753 1 2657 2676
M  V30 2754 1 2657 2836
M  V30 2755 1 2658 2677
M  V30 2756 1 2658 2837
M  V30 2757 1 2659 2679
M  V30 2758 1 2659 2839
M  V30 2759 1 2660 2680
M  V30 2760 1 2660 2840
M  V30 2761 1 2661 2681
M  V30 2762 1 2661 2721
M  V30 2763 1 2661 2841
M  V30 2764 1 2662 2682
M  V30 2765 1 2662 2723
M  V30 2766 1 2662 2843
M  V30 2767 1 2663 2683
M  V30 2768 1 2663 2724
M  V30 2769 1 2663 2842
M  V30 2770 1 2664 2684
M  V30 2771 1 2664 2725
M  V30 2772 1 2664 2844
M  V30 2773 1 2665 2685
M  V30 2774 1 2665 2726
M  V30 2775 1 2665 2845
M  V30 2776 1 2666 2686
M  V30 2777 1 2666 2727
M  V30 2778 1 2666 2846
M  V30 2779 1 2667 2687
M  V30 2780 1 2667 2728
M  V30 2781 1 2667 2847
M  V30 2782 1 2668 2688
M  V30 2783 1 2668 2735
M  V30 2784 1 2668 2854
M  V30 2785 1 2669 2689
M  V30 2786 1 2669 2729
M  V30 2787 1 2669 2848
M  V30 2788 1 2670 2690
M  V30 2789 1 2670 2730
M  V30 2790 1 2670 2849
M  V30 2791 1 2671 2691
M  V30 2792 1 2671 2731
M  V30 2793 1 2671 2850
M  V30 2794 1 2672 2692
M  V30 2795 1 2672 2732
M  V30 2796 1 2672 2851
M  V30 2797 1 2673 2693
M  V30 2798 1 2673 2733
M  V30 2799 1 2673 2852
M  V30 2800 1 2674 2694
M  V30 2801 1 2674 2734
M  V30 2802 1 2674 2853
M  V30 2803 1 2675 2695
M  V30 2804 1 2675 2736
M  V30 2805 1 2675 2855
M  V30 2806 1 2676 2696
M  V30 2807 1 2676 2737
M  V30 2808 1 2676 2856
M  V30 2809 1 2677 2697
M  V30 2810 1 2677 2738
M  V30 2811 1 2677 2857
M  V30 2812 1 2678 2698
M  V30 2813 1 2678 2722
M  V30 2814 1 2678 2858
M  V30 2815 1 2679 2699
M  V30 2816 1 2679 2739
M  V30 2817 1 2679 2859
M  V30 2818 1 2680 2700
M  V30 2819 1 2680 2740
M  V30 2820 1 2680 2860
M  V30 2821 2 2681 2701
M  V30 2822 2 2682 2702
M  V30 2823 2 2683 2703
M  V30 2824 2 2684 2704
M  V30 2825 2 2685 2705
M  V30 2826 2 2686 2706
M  V30 2827 2 2687 2707
M  V30 2828 2 2688 2714
M  V30 2829 2 2689 2708
M  V30 2830 2 2690 2709
M  V30 2831 2 2691 2710
M  V30 2832 2 2692 2711
M  V30 2833 2 2693 2712
M  V30 2834 2 2694 2713
M  V30 2835 2 2695 2715
M  V30 2836 2 2696 2716
M  V30 2837 2 2697 2717
M  V30 2838 2 2698 2718
M  V30 2839 2 2699 2719
M  V30 2840 2 2700 2720
M  V30 2841 1 2721 2741
M  V30 2842 1 2721 2861
M  V30 2843 1 2721 2881
M  V30 2844 1 2722 2758
M  V30 2845 1 2722 2878
M  V30 2846 1 2722 2882
M  V30 2847 1 2723 2742
M  V30 2848 1 2723 2863
M  V30 2849 1 2723 2884
M  V30 2850 1 2724 2743
M  V30 2851 1 2724 2862
M  V30 2852 1 2724 2883
M  V30 2853 1 2725 2744
M  V30 2854 1 2725 2864
M  V30 2855 1 2725 2885
M  V30 2856 1 2726 2745
M  V30 2857 1 2726 2865
M  V30 2858 1 2726 2886
M  V30 2859 1 2727 2746
M  V30 2860 1 2727 2866
M  V30 2861 1 2727 2887
M  V30 2862 1 2728 2747
M  V30 2863 1 2728 2867
M  V30 2864 1 2728 2888
M  V30 2865 1 2729 2748
M  V30 2866 1 2729 2868
M  V30 2867 1 2729 2889
M  V30 2868 1 2730 2749
M  V30 2869 1 2730 2869
M  V30 2870 1 2730 2890
M  V30 2871 1 2731 2750
M  V30 2872 1 2731 2870
M  V30 2873 1 2731 2891
M  V30 2874 1 2732 2751
M  V30 2875 1 2732 2871
M  V30 2876 1 2732 2892
M  V30 2877 1 2733 2752
M  V30 2878 1 2733 2872
M  V30 2879 1 2733 2893
M  V30 2880 1 2734 2753
M  V30 2881 1 2734 2873
M  V30 2882 1 2734 2894
M  V30 2883 1 2735 2760
M  V30 2884 1 2735 2874
M  V30 2885 1 2735 2895
M  V30 2886 1 2736 2754
M  V30 2887 1 2736 2875
M  V30 2888 1 2736 2896
M  V30 2889 1 2737 2755
M  V30 2890 1 2737 2876
M  V30 2891 1 2737 2897
M  V30 2892 1 2738 2756
M  V30 2893 1 2738 2877
M  V30 2894 1 2738 2898
M  V30 2895 1 2739 2757
M  V30 2896 1 2739 2879
M  V30 2897 1 2739 2899
M  V30 2898 1 2740 2759
M  V30 2899 1 2740 2880
M  V30 2900 1 2740 2900
M  V30 2901 1 2741 2761
M  V30 2902 1 2741 2901
M  V30 2903 1 2741 2921
M  V30 2904 1 2742 2762
M  V30 2905 1 2742 2903
M  V30 2906 1 2742 2923
M  V30 2907 1 2743 2763
M  V30 2908 1 2743 2902
M  V30 2909 1 2743 2922
M  V30 2910 1 2744 2764
M  V30 2911 1 2744 2904
M  V30 2912 1 2744 2924
M  V30 2913 1 2745 2765
M  V30 2914 1 2745 2905
M  V30 2915 1 2745 2925
M  V30 2916 1 2746 2766
M  V30 2917 1 2746 2906
M  V30 2918 1 2746 2926
M  V30 2919 1 2747 2767
M  V30 2920 1 2747 2907
M  V30 2921 1 2747 2927
M  V30 2922 1 2748 2768
M  V30 2923 1 2748 2908
M  V30 2924 1 2748 2928
M  V30 2925 1 2749 2769
M  V30 2926 1 2749 2909
M  V30 2927 1 2749 2930
M  V30 2928 1 2750 2770
M  V30 2929 1 2750 2910
M  V30 2930 1 2750 2931
M  V30 2931 1 2751 2771
M  V30 2932 1 2751 2911
M  V30 2933 1 2751 2932
M  V30 2934 1 2752 2772
M  V30 2935 1 2752 2913
M  V30 2936 1 2752 2933
M  V30 2937 1 2753 2773
M  V30 2938 1 2753 2914
M  V30 2939 1 2753 2934
M  V30 2940 1 2754 2774
M  V30 2941 1 2754 2915
M  V30 2942 1 2754 2935
M  V30 2943 1 2755 2775
M  V30 2944 1 2755 2916
M  V30 2945 1 2755 2936
M  V30 2946 1 2756 2776
M  V30 2947 1 2756 2917
M  V30 2948 1 2756 2937
M  V30 2949 1 2757 2777
M  V30 2950 1 2757 2919
M  V30 2951 1 2757 2939
M  V30 2952 1 2758 2778
M  V30 2953 1 2758 2918
M  V30 2954 1 2758 2938
M  V30 2955 1 2759 2780
M  V30 2956 1 2759 2920
M  V30 2957 1 2759 2940
M  V30 2958 1 2760 2779
M  V30 2959 1 2760 2912
M  V30 2960 1 2760 2929
M  V30 2961 1 2761 2781
M  V30 2962 1 2761 2941
M  V30 2963 1 2761 2961
M  V30 2964 1 2762 2782
M  V30 2965 1 2762 2943
M  V30 2966 1 2762 2964
M  V30 2967 1 2763 2783
M  V30 2968 1 2763 2942
M  V30 2969 1 2763 2963
M  V30 2970 1 2764 2784
M  V30 2971 1 2764 2944
M  V30 2972 1 2764 2965
M  V30 2973 1 2765 2785
M  V30 2974 1 2765 2945
M  V30 2975 1 2765 2966
M  V30 2976 1 2766 2786
M  V30 2977 1 2766 2946
M  V30 2978 1 2766 2967
M  V30 2979 1 2767 2787
M  V30 2980 1 2767 2947
M  V30 2981 1 2767 2968
M  V30 2982 1 2768 2788
M  V30 2983 1 2768 2948
M  V30 2984 1 2768 2969
M  V30 2985 1 2769 2789
M  V30 2986 1 2769 2949
M  V30 2987 1 2769 2970
M  V30 2988 1 2770 2790
M  V30 2989 1 2770 2950
M  V30 2990 1 2770 2971
M  V30 2991 1 2771 2791
M  V30 2992 1 2771 2952
M  V30 2993 1 2771 2972
M  V30 2994 1 2772 2792
M  V30 2995 1 2772 2953
M  V30 2996 1 2772 2973
M  V30 2997 1 2773 2793
M  V30 2998 1 2773 2954
M  V30 2999 1 2773 2974
M  V30 3000 1 2774 2794
M  V30 3001 1 2774 2955
M  V30 3002 1 2774 2976
M  V30 3003 1 2775 2795
M  V30 3004 1 2775 2956
M  V30 3005 1 2775 2977
M  V30 3006 1 2776 2796
M  V30 3007 1 2776 2957
M  V30 3008 1 2776 2978
M  V30 3009 1 2777 2797
M  V30 3010 1 2777 2959
M  V30 3011 1 2777 2979
M  V30 3012 1 2778 2798
M  V30 3013 1 2778 2958
M  V30 3014 1 2778 2962
M  V30 3015 1 2779 2799
M  V30 3016 1 2779 2951
M  V30 3017 1 2779 2975
M  V30 3018 1 2780 2800
M  V30 3019 1 2780 2960
M  V30 3020 1 2780 2980
M  V30 3021 1 2781 2801
M  V30 3022 1 2781 2981
M  V30 3023 1 2781 3001
M  V30 3024 1 2782 2803
M  V30 3025 1 2782 2984
M  V30 3026 1 2782 3003
M  V30 3027 1 2783 2804
M  V30 3028 1 2783 2983
M  V30 3029 1 2783 3002
M  V30 3030 1 2784 2805
M  V30 3031 1 2784 2985
M  V30 3032 1 2784 3004
M  V30 3033 1 2785 2806
M  V30 3034 1 2785 2986
M  V30 3035 1 2785 3005
M  V30 3036 1 2786 2807
M  V30 3037 1 2786 2987
M  V30 3038 1 2786 3006
M  V30 3039 1 2787 2808
M  V30 3040 1 2787 2988
M  V30 3041 1 2787 3007
M  V30 3042 1 2788 2809
M  V30 3043 1 2788 2989
M  V30 3044 1 2788 3008
M  V30 3045 1 2789 2810
M  V30 3046 1 2789 2990
M  V30 3047 1 2789 3009
M  V30 3048 1 2790 2811
M  V30 3049 1 2790 2991
M  V30 3050 1 2790 3010
M  V30 3051 1 2791 2812
M  V30 3052 1 2791 2992
M  V30 3053 1 2791 3011
M  V30 3054 1 2792 2813
M  V30 3055 1 2792 2993
M  V30 3056 1 2792 3012
M  V30 3057 1 2793 2814
M  V30 3058 1 2793 2994
M  V30 3059 1 2793 3013
M  V30 3060 1 2794 2816
M  V30 3061 1 2794 2995
M  V30 3062 1 2794 3015
M  V30 3063 1 2795 2817
M  V30 3064 1 2795 2996
M  V30 3065 1 2795 3016
M  V30 3066 1 2796 2818
M  V30 3067 1 2796 2997
M  V30 3068 1 2796 3017
M  V30 3069 1 2797 2819
M  V30 3070 1 2797 2999
M  V30 3071 1 2797 3019
M  V30 3072 1 2798 2802
M  V30 3073 1 2798 2998
M  V30 3074 1 2798 3018
M  V30 3075 1 2799 2815
M  V30 3076 1 2799 2982
M  V30 3077 1 2799 3014
M  V30 3078 1 2800 2820
M  V30 3079 1 2800 3000
M  V30 3080 1 2800 3020
M  V30 3081 1 2801 3021
M  V30 3082 1 2801 3041
M  V30 3083 1 2801 3061
M  V30 3084 1 2802 3038
M  V30 3085 1 2802 3042
M  V30 3086 1 2802 3062
M  V30 3087 1 2803 3023
M  V30 3088 1 2803 3044
M  V30 3089 1 2803 3064
M  V30 3090 1 2804 3022
M  V30 3091 1 2804 3043
M  V30 3092 1 2804 3063
M  V30 3093 1 2805 3024
M  V30 3094 1 2805 3045
M  V30 3095 1 2805 3065
M  V30 3096 1 2806 3025
M  V30 3097 1 2806 3046
M  V30 3098 1 2806 3066
M  V30 3099 1 2807 3026
M  V30 3100 1 2807 3047
M  V30 3101 1 2807 3067
M  V30 3102 1 2808 3027
M  V30 3103 1 2808 3048
M  V30 3104 1 2808 3068
M  V30 3105 1 2809 3028
M  V30 3106 1 2809 3049
M  V30 3107 1 2809 3069
M  V30 3108 1 2810 3029
M  V30 3109 1 2810 3050
M  V30 3110 1 2810 3070
M  V30 3111 1 2811 3030
M  V30 3112 1 2811 3051
M  V30 3113 1 2811 3071
M  V30 3114 1 2812 3031
M  V30 3115 1 2812 3052
M  V30 3116 1 2812 3072
M  V30 3117 1 2813 3032
M  V30 3118 1 2813 3053
M  V30 3119 1 2813 3073
M  V30 3120 1 2814 3033
M  V30 3121 1 2814 3054
M  V30 3122 1 2814 3074
M  V30 3123 1 2815 3034
M  V30 3124 1 2815 3055
M  V30 3125 1 2815 3075
M  V30 3126 1 2816 3035
M  V30 3127 1 2816 3056
M  V30 3128 1 2816 3076
M  V30 3129 1 2817 3036
M  V30 3130 1 2817 3057
M  V30 3131 1 2817 3077
M  V30 3132 1 2818 3037
M  V30 3133 1 2818 3058
M  V30 3134 1 2818 3078
M  V30 3135 1 2819 3039
M  V30 3136 1 2819 3059
M  V30 3137 1 2819 3079
M  V30 3138 1 2820 3040
M  V30 3139 1 2820 3060
M  V30 3140 1 2820 3080
M  V30 END BOND
M  V30 END CTAB
M  END
