plain_sheet_em
  PyMOL3.1          3D                             0

  0  0  0  0  0  0  0  0  0  0999 V3000
M  V30 BEGIN CTAB
M  V30 COUNTS 3080 3140 0 0 0
M  V30 BEGIN ATOM
M  V30 1 N -4.5930 9.4336 -8.1674 0
M  V30 2 N 25.1553 14.4937 -8.2039 0
M  V30 3 N 25.1547 28.7080 3.4911 0
M  V30 4 N 25.1595 24.1343 -8.1946 0
M  V30 5 N -4.5787 19.0674 -8.1944 0
M  V30 6 N -4.5783 28.7068 -8.2028 0
M  V30 7 N 25.3095 43.5129 -7.9733 0
M  V30 8 N 25.1607 19.0620 3.4802 0
M  V30 9 N -4.7313 -0.3131 -7.9732 0
M  V30 10 N -4.7311 43.5143 3.2600 0
M  V30 11 N 25.1711 33.7672 -8.1686 0
M  V30 12 N 25.3092 -0.3142 3.2603 0
M  V30 13 N -4.5816 24.1336 3.4813 0
M  V30 14 N -4.5595 4.7836 3.5094 0
M  V30 15 N 25.1381 38.4165 3.5093 0
M  V30 16 N -4.5597 38.4164 -8.2219 0
M  V30 17 N -4.5764 14.4939 3.4916 0
M  V30 18 N 25.1720 9.4302 3.4545 0
M  V30 19 N 25.1389 4.7837 -8.2219 0
M  V30 20 N -4.5938 33.7698 3.4545 0
M  V30 21 C -3.4467 14.0292 2.6318 0
M  V30 22 C -3.4274 38.8136 -7.3390 0
M  V30 23 C -3.5160 0.2433 -7.3151 0
M  V30 24 C 24.0059 38.8138 2.6261 0
M  V30 25 C 24.0388 33.2576 -7.3376 0
M  V30 26 C -3.4530 23.6417 2.6330 0
M  V30 27 C 24.0251 29.1728 2.6314 0
M  V30 28 C -3.4276 4.3863 2.6263 0
M  V30 29 C 24.0390 9.9413 2.6252 0
M  V30 30 C -3.5161 42.9569 2.6017 0
M  V30 31 C 24.0326 19.5546 2.6324 0
M  V30 32 C -3.4472 29.1701 -7.3448 0
M  V30 33 C 24.0066 4.3866 -7.3389 0
M  V30 34 C -3.4600 9.9431 -7.3374 0
M  V30 35 C 24.0939 0.2433 2.6012 0
M  V30 36 C 24.0313 23.6421 -7.3458 0
M  V30 37 C -3.4506 19.5590 -7.3456 0
M  V30 38 C 24.0250 14.0290 -7.3449 0
M  V30 39 C -3.4611 33.2596 2.6246 0
M  V30 40 C 24.0952 42.9554 -7.3145 0
M  V30 41 C -2.1706 24.3849 3.0499 0
M  V30 42 C 22.7486 24.3844 -7.7624 0
M  V30 43 C 22.7545 9.2012 3.0404 0
M  V30 44 C -2.1728 14.7858 3.0502 0
M  V30 45 C -2.2616 -0.5144 -7.8113 0
M  V30 46 C -2.1779 9.1999 -7.7527 0
M  V30 47 C -2.1687 18.8147 -7.7629 0
M  V30 48 C 22.7510 38.0323 3.0513 0
M  V30 49 C -2.1733 28.4153 -7.7644 0
M  V30 50 C 22.7513 14.7847 -7.7629 0
M  V30 51 C -2.1733 38.0316 -7.7647 0
M  V30 52 C 22.7511 18.8103 3.0487 0
M  V30 53 C -2.1789 34.0025 3.0395 0
M  V30 54 C -2.1736 5.1699 3.0520 0
M  V30 55 C 22.7500 28.4163 3.0535 0
M  V30 56 C 22.8396 43.7129 -7.8112 0
M  V30 57 C -2.2597 43.7122 3.0958 0
M  V30 58 C 22.8387 -0.5132 3.0955 0
M  V30 59 C 22.7528 5.1690 -7.7641 0
M  V30 60 C 22.7564 34.0009 -7.7524 0
M  V30 61 O 22.6612 6.3919 -7.6669 0
M  V30 62 O -2.0484 25.6069 2.9401 0
M  V30 63 O 22.6248 7.9804 2.9189 0
M  V30 64 O 22.6275 35.2215 -7.6286 0
M  V30 65 O 22.6403 16.0071 -7.6587 0
M  V30 66 O -2.0607 16.0075 2.9451 0
M  V30 67 O 22.7295 -1.7459 3.0662 0
M  V30 68 O 22.6251 25.6061 -7.6521 0
M  V30 69 O -2.0786 6.3904 2.9553 0
M  V30 70 O 22.6369 27.1956 2.9397 0
M  V30 71 O -2.1485 44.9422 3.0634 0
M  V30 72 O -2.0439 17.5930 -7.6539 0
M  V30 73 O -2.0496 35.2227 2.9146 0
M  V30 74 O 22.6285 17.5888 2.9390 0
M  V30 75 O -2.0807 36.8094 -7.6682 0
M  V30 76 O -2.0492 7.9791 -7.6285 0
M  V30 77 O 22.6601 36.8091 2.9548 0
M  V30 78 O -2.0611 27.1928 -7.6621 0
M  V30 79 O -2.1530 -1.7439 -7.7814 0
M  V30 80 O 22.7322 44.9470 -7.7805 0
M  V30 81 C 24.1214 9.7875 1.0833 0
M  V30 82 C -3.5135 43.0291 1.0530 0
M  V30 83 C 24.1229 23.8118 -5.8055 0
M  V30 84 C -3.5444 38.5979 -5.8070 0
M  V30 85 C 24.0918 43.0291 -5.7657 0
M  V30 86 C -3.5438 19.3886 -5.8055 0
M  V30 87 C -3.5445 4.6021 1.0943 0
M  V30 88 C 24.0920 0.1710 1.0527 0
M  V30 89 C -3.5449 28.9899 -5.8066 0
M  V30 90 C 24.1218 33.4118 -5.7957 0
M  V30 91 C 24.1230 38.5980 1.0942 0
M  V30 92 C -3.5430 9.7884 -5.7954 0
M  V30 93 C -3.5433 33.4124 1.0827 0
M  V30 94 C 24.1226 28.9907 1.0943 0
M  V30 95 C 24.1235 14.2096 -5.8067 0
M  V30 96 C 24.1234 19.3877 1.0919 0
M  V30 97 C -3.5444 23.8116 1.0927 0
M  V30 98 C -3.5133 0.1709 -5.7656 0
M  V30 99 C 24.1232 4.6020 -5.8069 0
M  V30 100 C -3.5449 14.2095 1.0939 0
M  V30 101 C -4.8818 19.1703 -5.1504 0
M  V30 102 C -4.8841 28.7724 -5.1551 0
M  V30 103 C -4.8878 4.8224 0.4538 0
M  V30 104 C 25.4573 33.6313 -5.1365 0
M  V30 105 C 25.4157 -0.0396 0.3536 0
M  V30 106 C -4.8372 -0.0396 -5.0664 0
M  V30 107 C -4.8372 43.2396 0.3536 0
M  V30 108 C 25.4606 24.0298 -5.1502 0
M  V30 109 C 25.4624 28.7726 0.4427 0
M  V30 110 C 25.4627 14.4276 -5.1554 0
M  V30 111 C 25.4570 9.5685 0.4237 0
M  V30 112 C -4.8788 33.6315 0.4233 0
M  V30 113 C -4.8843 14.4276 0.4425 0
M  V30 114 C -4.8821 24.0298 0.4373 0
M  V30 115 C 25.4664 4.8224 -5.1665 0
M  V30 116 C -4.8786 9.5688 -5.1363 0
M  V30 117 C -4.8878 38.3776 -5.1666 0
M  V30 118 C 25.4609 19.1699 0.4364 0
M  V30 119 C 25.4663 38.3776 0.4538 0
M  V30 120 C 25.4157 43.2395 -5.0665 0
M  V30 121 C -5.3341 8.2612 -4.9235 0
M  V30 122 C 25.9147 17.8625 0.2194 0
M  V30 123 C -5.3370 27.4648 -4.9374 0
M  V30 124 C 25.9128 34.9389 -4.9236 0
M  V30 125 C -5.3357 17.8628 -4.9331 0
M  V30 126 C 25.9155 15.7352 -4.9375 0
M  V30 127 C 25.8877 -1.3451 0.1608 0
M  V30 128 C 25.9126 8.2610 0.2108 0
M  V30 129 C -5.3359 25.3373 0.2202 0
M  V30 130 C -5.3343 34.9390 0.2105 0
M  V30 131 C -5.3385 6.1310 0.2360 0
M  V30 132 C 25.9170 37.0690 0.2360 0
M  V30 133 C 25.9144 25.3373 -4.9330 0
M  V30 134 C -5.3092 44.5452 0.1608 0
M  V30 135 C -5.3385 37.0690 -4.9488 0
M  V30 136 C -5.3093 -1.3451 -4.8737 0
M  V30 137 C 25.8878 44.5451 -4.8738 0
M  V30 138 C 25.9154 27.4649 0.2248 0
M  V30 139 C 25.9171 6.1310 -4.9487 0
M  V30 140 C -5.3370 15.7353 0.2245 0
M  V30 141 C -5.6781 3.7492 0.0304 0
M  V30 142 C -5.6737 29.8476 -4.7364 0
M  V30 143 C -5.6690 32.5555 0.0092 0
M  V30 144 C -5.6690 10.6446 -4.7220 0
M  V30 145 C -5.6715 20.2458 -4.7326 0
M  V30 146 C 26.2566 39.4508 0.0305 0
M  V30 147 C -5.6781 39.4508 -4.7432 0
M  V30 148 C 26.2523 13.3524 -4.7365 0
M  V30 149 C 26.2472 10.6445 0.0094 0
M  V30 150 C 26.2132 42.1598 -4.6762 0
M  V30 151 C 26.2132 1.0401 -0.0366 0
M  V30 152 C 26.2567 3.7492 -4.7432 0
M  V30 153 C 26.2503 20.2456 0.0191 0
M  V30 154 C 26.2476 32.5554 -4.7221 0
M  V30 155 C -5.6347 42.1599 -0.0367 0
M  V30 156 C -5.6716 22.9542 0.0197 0
M  V30 157 C 26.2501 22.9543 -4.7326 0
M  V30 158 C 26.2523 29.8477 0.0237 0
M  V30 159 C -5.6348 1.0402 -4.6762 0
M  V30 160 C -5.6738 13.3524 0.0235 0
M  V30 161 C -6.5688 44.7708 -0.3897 0
M  V30 162 C 27.1576 27.2334 -0.3616 0
M  V30 163 C 27.1577 15.9668 -4.3511 0
M  V30 164 C 27.1581 35.1697 -4.3437 0
M  V30 165 C -6.5792 27.2333 -4.3511 0
M  V30 166 C 27.1574 6.3646 -4.3591 0
M  V30 167 C -6.5796 35.1697 -0.3693 0
M  V30 168 C 27.1473 44.7708 -4.3232 0
M  V30 169 C -6.5792 15.9668 -0.3618 0
M  V30 170 C -6.5795 8.0304 -4.3437 0
M  V30 171 C 27.1579 8.0303 -0.3691 0
M  V30 172 C -6.5789 17.6318 -4.3484 0
M  V30 173 C -6.5790 25.5683 -0.3645 0
M  V30 174 C 27.1574 36.8354 -0.3537 0
M  V30 175 C 27.1575 25.5683 -4.3484 0
M  V30 176 C -6.5688 -1.5708 -4.3232 0
M  V30 177 C 27.1473 -1.5708 -0.3897 0
M  V30 178 C 27.1579 17.6316 -0.3650 0
M  V30 179 C -6.5789 6.3646 -0.3537 0
M  V30 180 C -6.5789 36.8354 -4.3591 0
M  V30 181 C -6.9174 32.7854 -0.5705 0
M  V30 182 C 27.4956 10.4146 -0.5704 0
M  V30 183 C -6.8959 42.3850 -0.5914 0
M  V30 184 C 27.5008 3.9823 -4.1545 0
M  V30 185 C 27.4966 23.1844 -4.1482 0
M  V30 186 C -6.9195 29.6168 -4.1503 0
M  V30 187 C -6.9222 39.2177 -4.1545 0
M  V30 188 C 27.4959 32.7854 -4.1424 0
M  V30 189 C 27.4744 42.3849 -4.1214 0
M  V30 190 C -6.9174 10.4146 -4.1424 0
M  V30 191 C -6.9181 23.1844 -0.5647 0
M  V30 192 C 27.4969 20.0155 -0.5651 0
M  V30 193 C -6.8959 0.8151 -4.1214 0
M  V30 194 C -6.9180 20.0155 -4.1481 0
M  V30 195 C 27.5008 39.2177 -0.5583 0
M  V30 196 C 27.4980 13.5832 -4.1504 0
M  V30 197 C -6.9222 3.9823 -0.5583 0
M  V30 198 C 27.4744 0.8151 -0.5914 0
M  V30 199 C 27.4980 29.6168 -0.5624 0
M  V30 200 C -6.9195 13.5832 -0.5625 0
M  V30 201 C -7.3772 28.3104 -3.9699 0
M  V30 202 C 27.9562 5.2894 -3.9750 0
M  V30 203 C 27.9439 -0.4888 -0.7612 0
M  V30 204 C 27.9558 34.0914 -3.9643 0
M  V30 205 C 27.9556 18.7094 -0.7451 0
M  V30 206 C 27.9439 43.6889 -3.9517 0
M  V30 207 C 27.9557 14.8896 -3.9699 0
M  V30 208 C -7.3773 34.0914 -0.7486 0
M  V30 209 C -7.3773 9.1086 -3.9643 0
M  V30 210 C -7.3772 14.8896 -0.7429 0
M  V30 211 C -7.3768 24.4905 -0.7448 0
M  V30 212 C 27.9562 37.9107 -0.7378 0
M  V30 213 C -7.3654 43.6889 -0.7612 0
M  V30 214 C 27.9557 28.3104 -0.7429 0
M  V30 215 C -7.3776 37.9106 -3.9750 0
M  V30 216 C 27.9553 24.4905 -3.9681 0
M  V30 217 C -7.3654 -0.4889 -3.9516 0
M  V30 218 C 27.9556 9.1087 -0.7485 0
M  V30 219 C -7.3777 5.2894 -0.7378 0
M  V30 220 C -7.3767 18.7095 -3.9680 0
M  V30 221 H 25.0302 -1.1508 3.7818 0
M  V30 222 H -4.4849 25.1528 3.5598 0
M  V30 223 H 25.1448 37.3859 3.5361 0
M  V30 224 H 25.0899 15.5178 -8.2626 0
M  V30 225 H -4.4519 44.3509 3.7819 0
M  V30 226 H 25.0628 25.1536 -8.2724 0
M  V30 227 H -4.4630 34.7797 3.5783 0
M  V30 228 H 25.0889 27.6836 3.5491 0
M  V30 229 H 25.1451 5.8144 -8.2491 0
M  V30 230 H 25.0307 44.3499 -8.4940 0
M  V30 231 H -4.5664 37.3858 -8.2491 0
M  V30 232 H -4.4633 8.4235 -8.2907 0
M  V30 233 H 25.0629 18.0430 3.5604 0
M  V30 234 H 25.0405 8.4204 3.5785 0
M  V30 235 H -4.5118 15.5179 3.5497 0
M  V30 236 H -4.5122 27.6827 -8.2629 0
M  V30 237 H -4.5664 5.8142 3.5363 0
M  V30 238 H -4.4523 -1.1504 -8.4940 0
M  V30 239 H 25.0418 34.7776 -8.2906 0
M  V30 240 H -4.4837 18.0478 -8.2718 0
M  V30 241 H -3.3352 20.6307 -7.5409 0
M  V30 242 H -3.3498 11.0135 -7.5461 0
M  V30 243 H 23.8960 30.2439 2.8165 0
M  V30 244 H 23.9287 32.1872 -7.5468 0
M  V30 245 H 24.0020 41.8965 -7.5897 0
M  V30 246 H 23.8420 39.8848 2.7836 0
M  V30 247 H 23.8422 3.3157 -7.4966 0
M  V30 248 H -3.3395 22.5705 2.8283 0
M  V30 249 H 23.9188 22.5709 -7.5410 0
M  V30 250 H 23.9317 11.0114 2.8343 0
M  V30 251 H -3.4256 41.8975 2.8772 0
M  V30 252 H -3.3519 32.1895 2.8341 0
M  V30 253 H 23.8966 12.9580 -7.5303 0
M  V30 254 H -3.4247 1.3027 -7.5898 0
M  V30 255 H -3.3201 30.2410 -7.5289 0
M  V30 256 H -3.2637 39.8846 -7.4964 0
M  V30 257 H -3.2638 3.3154 2.7836 0
M  V30 258 H 24.0029 1.3030 2.8774 0
M  V30 259 H -3.3169 12.9588 2.8181 0
M  V30 260 H 23.9193 20.6255 2.8290 0
M  V30 261 H -3.0840 10.6838 -5.3470 0
M  V30 262 H 23.6631 13.3227 -5.3426 0
M  V30 263 H -3.0847 13.3227 0.6298 0
M  V30 264 H -3.0511 42.1116 0.6586 0
M  V30 265 H -3.0842 3.7258 0.6108 0
M  V30 266 H -3.0842 39.4742 -5.3236 0
M  V30 267 H 23.6295 42.1116 -5.3710 0
M  V30 268 H 23.6627 29.8773 0.6289 0
M  V30 269 H 23.6628 32.5163 -5.3475 0
M  V30 270 H -3.0511 1.0884 -5.3711 0
M  V30 271 H 23.6627 39.4742 0.6107 0
M  V30 272 H -3.0840 20.2788 -5.3472 0
M  V30 273 H 23.6634 20.2788 0.6355 0
M  V30 274 H 23.6628 22.9214 -5.3479 0
M  V30 275 H -3.0843 22.9213 0.6350 0
M  V30 276 H 23.6624 10.6832 0.6355 0
M  V30 277 H 23.6628 3.7258 -5.3236 0
M  V30 278 H -3.0844 32.5165 0.6352 0
M  V30 279 H -3.0845 29.8770 -5.3427 0
M  V30 280 H 23.6296 1.0883 0.6585 0
M  V30 281 H 23.4607 34.2192 -5.4511 0
M  V30 282 H -2.8881 28.1764 -5.4681 0
M  V30 283 H 23.4668 15.0233 -5.4679 0
M  V30 284 H -2.8821 34.2194 0.7378 0
M  V30 285 H -2.8926 37.7767 -5.4767 0
M  V30 286 H -2.8884 15.0233 0.7547 0
M  V30 287 H 23.4712 5.4232 -5.4765 0
M  V30 288 H -2.8856 18.5772 -5.4647 0
M  V30 289 H -2.8393 -0.6264 -5.4272 0
M  V30 290 H 23.4647 18.5771 0.7502 0
M  V30 291 H -2.8860 24.6229 0.7518 0
M  V30 292 H -2.8820 8.9809 -5.4511 0
M  V30 293 H 23.4712 37.7768 0.7638 0
M  V30 294 H -2.8926 5.4233 0.7639 0
M  V30 295 H -2.8393 43.8265 0.7146 0
M  V30 296 H 23.4664 28.1768 0.7554 0
M  V30 297 H 23.4177 -0.6266 0.7144 0
M  V30 298 H 23.4645 24.6230 -5.4645 0
M  V30 299 H 23.4604 8.9802 0.7387 0
M  V30 300 H 23.4178 43.8265 -5.4272 0
M  V30 301 H -4.7031 -2.1734 -5.2328 0
M  V30 302 H -4.7130 26.6263 -5.2429 0
M  V30 303 H 25.2920 6.9720 -5.2469 0
M  V30 304 H 25.2912 7.4261 0.5286 0
M  V30 305 H 25.2914 16.5737 -5.2427 0
M  V30 306 H -4.7122 17.0257 -5.2421 0
M  V30 307 H -4.7123 26.1742 0.5293 0
M  V30 308 H -4.7126 7.4264 -5.2411 0
M  V30 309 H -4.7136 36.2280 -5.2470 0
M  V30 310 H 25.2912 35.7737 -5.2411 0
M  V30 311 H -4.7130 16.5736 0.5299 0
M  V30 312 H 25.2816 45.3734 -5.2328 0
M  V30 313 H 25.2920 36.2280 0.5341 0
M  V30 314 H -4.7135 6.9721 0.5342 0
M  V30 315 H 25.2817 -2.1734 0.5199 0
M  V30 316 H 25.2914 26.6265 0.5301 0
M  V30 317 H -4.7128 35.7738 0.5283 0
M  V30 318 H 25.2911 17.0256 0.5287 0
M  V30 319 H 25.2908 26.1743 -5.2421 0
M  V30 320 H -4.7031 45.3734 0.5200 0
M  V30 321 H -5.3134 30.8633 -4.8761 0
M  V30 322 H 25.8912 21.2621 0.1616 0
M  V30 323 H 25.8942 40.4655 0.1610 0
M  V30 324 H -5.3125 21.2623 -4.8745 0
M  V30 325 H -5.2892 2.0570 -4.8535 0
M  V30 326 H 25.8918 30.8634 0.1632 0
M  V30 327 H -5.3124 31.5383 0.1564 0
M  V30 328 H 25.8678 2.0570 0.1408 0
M  V30 329 H -5.3156 40.4655 -4.8738 0
M  V30 330 H 25.8678 41.1430 -4.8535 0
M  V30 331 H 25.8918 12.3367 -4.8761 0
M  V30 332 H -5.2892 41.1430 0.1408 0
M  V30 333 H 25.8942 2.7345 -4.8738 0
M  V30 334 H 25.8908 31.5382 -4.8690 0
M  V30 335 H 25.8906 11.6616 0.1564 0
M  V30 336 H -5.3124 21.9378 0.1616 0
M  V30 337 H 25.8908 21.9378 -4.8744 0
M  V30 338 H -5.3156 2.7345 0.1610 0
M  V30 339 H -5.3133 12.3366 0.1634 0
M  V30 340 H -5.3124 11.6619 -4.8688 0
M  V30 341 H 27.4905 16.9895 -4.2049 0
M  V30 342 H 27.4865 35.8115 -0.5065 0
M  V30 343 H -6.9080 7.3886 -0.5064 0
M  V30 344 H 27.4980 7.0093 -0.5021 0
M  V30 345 H 27.4925 26.5903 -4.2057 0
M  V30 346 H -6.9197 36.1907 -0.5022 0
M  V30 347 H -6.9140 16.6098 -4.2057 0
M  V30 348 H 27.4980 36.1906 -4.2106 0
M  V30 349 H -6.9342 45.7862 -0.4774 0
M  V30 350 H 27.4865 7.3886 -4.2063 0
M  V30 351 H 27.5126 45.7862 -4.2354 0
M  V30 352 H -6.9194 7.0094 -4.2106 0
M  V30 353 H -6.9120 26.2105 -4.2050 0
M  V30 354 H 27.4904 26.2106 -0.5078 0
M  V30 355 H -6.9121 16.9895 -0.5079 0
M  V30 356 H -6.9141 26.5903 -0.5071 0
M  V30 357 H -6.9081 35.8115 -4.2063 0
M  V30 358 H 27.5127 -2.5862 -0.4774 0
M  V30 359 H 27.4931 16.6096 -0.5073 0
M  V30 360 H -6.9341 -2.5862 -4.2354 0
M  V30 361 H 28.1056 31.9381 -3.8470 0
M  V30 362 H 28.1089 40.0565 -0.8762 0
M  V30 363 H -7.5272 12.7396 -0.8696 0
M  V30 364 H -7.5174 1.6667 -3.8625 0
M  V30 365 H 28.1047 20.8612 -0.8677 0
M  V30 366 H -7.5303 3.1435 -0.8762 0
M  V30 367 H -7.5272 30.4604 -3.8432 0
M  V30 368 H 28.0958 41.5334 -3.8625 0
M  V30 369 H -7.5257 20.8611 -3.8451 0
M  V30 370 H 28.1056 12.7396 -3.8432 0
M  V30 371 H -7.5258 22.3389 -0.8678 0
M  V30 372 H -7.5173 41.5334 -0.8502 0
M  V30 373 H 28.1089 3.1435 -3.8366 0
M  V30 374 H 28.0959 1.6667 -0.8502 0
M  V30 375 H -7.5272 11.2619 -3.8470 0
M  V30 376 H 28.1042 22.3389 -3.8450 0
M  V30 377 H 28.1056 30.4604 -0.8697 0
M  V30 378 H -7.5272 31.9381 -0.8657 0
M  V30 379 H 28.1054 11.2619 -0.8657 0
M  V30 380 H -7.5303 40.0565 -3.8366 0
M  V30 381 H -8.3628 43.8552 -1.1494 0
M  V30 382 H 28.9264 5.4769 -3.5297 0
M  V30 383 H 28.9316 18.5301 -1.1794 0
M  V30 384 H -8.3526 24.6700 -1.1794 0
M  V30 385 H 28.9296 15.0719 -3.5318 0
M  V30 386 H -8.3573 34.2675 -1.1747 0
M  V30 387 H 28.9264 37.7231 -1.1831 0
M  V30 388 H -8.3526 18.5301 -3.5334 0
M  V30 389 H 28.9414 -0.6552 -1.1494 0
M  V30 390 H -8.3479 37.7231 -3.5297 0
M  V30 391 H -8.3479 5.4769 -1.1831 0
M  V30 392 H 28.9356 8.9325 -1.1747 0
M  V30 393 H 28.9295 28.1280 -1.1810 0
M  V30 394 H 28.9413 43.8552 -3.5634 0
M  V30 395 H -8.3511 28.1280 -3.5318 0
M  V30 396 H -8.3629 -0.6552 -3.5634 0
M  V30 397 H 28.9357 34.2675 -3.5380 0
M  V30 398 H 28.9311 24.6699 -3.5333 0
M  V30 399 H -8.3572 8.9324 -3.5381 0
M  V30 400 H -8.3511 15.0719 -1.1810 0
M  V30 401 N -1.2372 42.9042 3.5412 0
M  V30 402 N -1.1773 23.5775 3.5626 0
M  V30 403 N -1.1721 29.2178 -8.2700 0
M  V30 404 N -1.1911 10.0061 -8.2781 0
M  V30 405 N 21.7409 38.8247 3.5527 0
M  V30 406 N 21.8153 0.2949 3.5411 0
M  V30 407 N 21.7559 23.5765 -8.2760 0
M  V30 408 N 21.7505 13.9825 -8.2693 0
M  V30 409 N -1.1919 33.1958 3.5651 0
M  V30 410 N 21.8164 42.9053 -8.2527 0
M  V30 411 N -1.1623 4.3766 3.5503 0
M  V30 412 N -1.2371 0.2948 -8.2539 0
M  V30 413 N 21.7419 4.3766 -8.2655 0
M  V30 414 N 21.7667 10.0101 3.5615 0
M  V30 415 N 21.7574 29.2117 3.5783 0
M  V30 416 N -1.1624 38.8262 -8.2654 0
M  V30 417 N 21.7693 33.1941 -8.2784 0
M  V30 418 N 21.7573 19.6181 3.5619 0
M  V30 419 N -1.1762 19.6241 -8.2764 0
M  V30 420 N -1.1728 13.9820 3.5575 0
M  V30 421 C 20.5869 43.4570 -8.8069 0
M  V30 422 C -0.0082 -0.2568 -8.8066 0
M  V30 423 C 0.0954 24.0864 4.0826 0
M  V30 424 C 0.1056 4.9016 4.0654 0
M  V30 425 C 0.1000 28.7041 -8.7856 0
M  V30 426 C 20.4909 28.6903 4.0951 0
M  V30 427 C 20.4917 33.6969 -8.7932 0
M  V30 428 C 20.4762 4.9072 -8.7782 0
M  V30 429 C -0.0083 43.4567 4.0940 0
M  V30 430 C 0.0977 14.4983 4.0747 0
M  V30 431 C 20.5869 -0.2570 4.0943 0
M  V30 432 C 20.4780 14.4962 -8.7867 0
M  V30 433 C 20.4824 24.0837 -8.7957 0
M  V30 434 C 20.4752 38.2955 4.0641 0
M  V30 435 C 0.0834 33.7006 4.0793 0
M  V30 436 C 20.4910 9.5075 4.0780 0
M  V30 437 C 0.0976 19.1163 -8.7946 0
M  V30 438 C 0.1037 38.3007 -8.7787 0
M  V30 439 C 0.0825 9.5001 -8.7932 0
M  V30 440 C 20.4841 19.1081 4.0793 0
M  V30 441 C 1.2550 13.7489 3.4439 0
M  V30 442 C 1.1849 0.5573 -8.2742 0
M  V30 443 C 1.2567 29.4531 -8.1541 0
M  V30 444 C 19.3322 29.4257 3.4352 0
M  V30 445 C 19.3257 19.8515 3.4494 0
M  V30 446 C 1.2395 10.2400 -8.1458 0
M  V30 447 C 1.2561 19.8609 -8.1677 0
M  V30 448 C 1.2570 23.3432 3.4547 0
M  V30 449 C 19.3377 32.9570 -8.1535 0
M  V30 450 C 19.3269 39.0493 3.4300 0
M  V30 451 C 1.2363 32.9602 3.4339 0
M  V30 452 C 19.3251 4.1575 -8.1418 0
M  V30 453 C 1.1900 42.6421 3.5578 0
M  V30 454 C 19.3941 42.6426 -8.2745 0
M  V30 455 C 19.3925 0.5547 3.5591 0
M  V30 456 C 19.3215 23.3412 -8.1679 0
M  V30 457 C 19.3336 10.2482 3.4374 0
M  V30 458 C 1.2581 39.0548 -8.1444 0
M  V30 459 C 19.3245 13.7463 -8.1514 0
M  V30 460 C 1.2596 4.1442 3.4307 0
M  V30 461 O 1.2985 30.6844 -8.0799 0
M  V30 462 O 19.2996 2.9218 -8.0463 0
M  V30 463 O 19.2798 21.0819 3.3771 0
M  V30 464 O 19.3056 30.6474 3.3138 0
M  V30 465 O 1.2766 11.4706 -8.0465 0
M  V30 466 O 1.2388 1.7870 -8.2594 0
M  V30 467 O 19.2849 12.5134 -8.0706 0
M  V30 468 O 19.2896 40.2956 3.3539 0
M  V30 469 O 1.2988 40.2914 -8.0625 0
M  V30 470 O 19.2886 11.4773 3.3460 0
M  V30 471 O 19.2992 31.7272 -8.0542 0
M  V30 472 O 1.3087 21.0962 -8.1046 0
M  V30 473 O 19.3447 1.7868 3.5453 0
M  V30 474 O 1.2759 31.7288 3.3356 0
M  V30 475 O 1.2823 2.9065 3.3561 0
M  V30 476 O 1.2969 12.5151 3.3695 0
M  V30 477 O 1.3107 22.1094 3.3931 0
M  V30 478 O 19.3405 41.4131 -8.2590 0
M  V30 479 O 19.2689 22.1092 -8.1050 0
M  V30 480 O 1.2376 41.4131 3.5460 0
M  V30 481 C 20.3881 33.4611 -10.3075 0
M  V30 482 C 20.3861 14.2651 -10.3007 0
M  V30 483 C 20.3877 23.8568 -10.3118 0
M  V30 484 C 20.3864 9.7418 5.5922 0
M  V30 485 C -0.0223 43.4659 5.6341 0
M  V30 486 C 20.3860 38.5328 5.5787 0
M  V30 487 C 0.1926 38.5346 -10.2907 0
M  V30 488 C 0.1909 9.7391 -10.3068 0
M  V30 489 C 20.6009 -0.2661 5.6343 0
M  V30 490 C 0.1915 28.9359 -10.3020 0
M  V30 491 C -0.0224 -0.2659 -10.3468 0
M  V30 492 C 20.3877 19.3388 5.5949 0
M  V30 493 C 0.1937 4.6651 5.5766 0
M  V30 494 C 0.1906 23.8589 5.5979 0
M  V30 495 C 20.3845 4.6657 -10.2892 0
M  V30 496 C 20.6008 43.4660 -10.3469 0
M  V30 497 C 0.1906 33.4622 5.5932 0
M  V30 498 C 0.1907 19.3436 -10.3115 0
M  V30 499 C 20.3894 28.9368 5.6059 0
M  V30 500 C 0.1915 14.2654 5.5889 0
M  V30 501 C 1.3391 5.3277 6.3621 0
M  V30 502 C 1.1799 44.1997 6.2459 0
M  V30 503 C 19.2347 18.6649 6.3616 0
M  V30 504 C 1.3438 24.5332 6.3641 0
M  V30 505 C 19.2384 14.9355 -11.0775 0
M  V30 506 C 19.2401 5.3270 -11.0749 0
M  V30 507 C 1.3400 14.9349 6.3650 0
M  V30 508 C 1.3455 9.0612 -11.0674 0
M  V30 509 C 19.3987 44.1997 -10.9588 0
M  V30 510 C 19.3986 -0.9997 6.2460 0
M  V30 511 C 1.3449 34.1413 6.3534 0
M  V30 512 C 19.2323 9.0629 6.3541 0
M  V30 513 C 19.2405 37.8717 6.3620 0
M  V30 514 C 1.3398 28.2664 -11.0780 0
M  V30 515 C 1.1798 -0.9997 -10.9587 0
M  V30 516 C 19.2423 28.2507 6.3647 0
M  V30 517 C 1.3395 37.8730 -11.0752 0
M  V30 518 C 19.2337 24.5299 -11.0778 0
M  V30 519 C 1.3446 18.6699 -11.0765 0
M  V30 520 C 19.2326 34.1380 -11.0674 0
M  V30 521 C 1.0485 5.3008 7.8839 0
M  V30 522 C 19.5040 18.6206 7.8862 0
M  V30 523 C 1.0571 14.9497 7.8879 0
M  V30 524 C 19.4943 34.1954 -12.5928 0
M  V30 525 C 19.5232 14.9485 -12.6006 0
M  V30 526 C 19.3030 44.2876 -12.4873 0
M  V30 527 C 19.5108 28.2424 7.8707 0
M  V30 528 C 1.0721 24.5751 7.8887 0
M  V30 529 C 1.0558 28.2524 -12.6010 0
M  V30 530 C 19.5346 5.2969 -12.5948 0
M  V30 531 C 1.0766 18.6227 -12.6014 0
M  V30 532 C 1.0819 34.1949 7.8792 0
M  V30 533 C 19.5316 37.8994 7.8825 0
M  V30 534 C 1.0491 37.8989 -12.5969 0
M  V30 535 C 1.2755 44.2876 7.7745 0
M  V30 536 C 19.3030 -1.0877 7.7746 0
M  V30 537 C 1.2754 -1.0876 -12.4873 0
M  V30 538 C 19.4949 9.0067 7.8795 0
M  V30 539 C 1.0821 9.0058 -12.5930 0
M  V30 540 C 19.5057 24.5742 -12.6022 0
M  V30 541 O 20.5223 9.6466 8.3074 0
M  V30 542 O 0.0454 23.9326 8.3074 0
M  V30 543 O 20.5605 38.5804 8.2434 0
M  V30 544 O 0.0450 19.2707 -13.0140 0
M  V30 545 O 0.3369 43.7887 8.4493 0
M  V30 546 O 0.0560 9.6444 -13.0211 0
M  V30 547 O 20.2417 43.7889 -13.1621 0
M  V30 548 O 20.5351 19.2681 8.3018 0
M  V30 549 O 20.5397 28.9022 8.2887 0
M  V30 550 O 20.5669 4.6164 -12.9610 0
M  V30 551 O 0.0190 4.6203 8.2458 0
M  V30 552 O 20.2417 -0.5889 8.4493 0
M  V30 553 O 20.5497 14.2943 -12.9998 0
M  V30 554 O 0.0560 33.5549 8.3069 0
M  V30 555 O 0.0280 14.2932 8.2864 0
M  V30 556 O 20.5335 23.9319 -13.0210 0
M  V30 557 O 0.3368 -0.5889 -13.1621 0
M  V30 558 O 0.0288 28.9061 -13.0008 0
M  V30 559 O 0.0187 38.5798 -12.9595 0
M  V30 560 O 20.5238 33.5530 -13.0176 0
M  V30 561 O 1.7489 35.0260 8.5457 0 CHG=-1
M  V30 562 O 18.8285 8.1760 8.5454 0 CHG=-1
M  V30 563 O 1.7367 25.3976 8.5701 0 CHG=-1
M  V30 564 O 18.8311 35.0249 -13.2601 0 CHG=-1
M  V30 565 O 1.7023 37.1376 -13.3439 0 CHG=-1
M  V30 566 O 18.8418 25.3967 -13.2831 0 CHG=-1
M  V30 567 O 2.3076 44.9009 8.1969 0 CHG=-1
M  V30 568 O 1.7179 15.7496 8.5946 0 CHG=-1
M  V30 569 O 1.7017 6.0622 8.6308 0 CHG=-1
M  V30 570 O 18.8784 6.0588 -13.3377 0 CHG=-1
M  V30 571 O 1.7348 17.8046 -13.2853 0 CHG=-1
M  V30 572 O 18.8446 17.8015 8.5691 0 CHG=-1
M  V30 573 O 18.2709 44.9010 -12.9097 0 CHG=-1
M  V30 574 O 18.8615 27.4348 8.5946 0 CHG=-1
M  V30 575 O 1.7191 27.4504 -13.3070 0 CHG=-1
M  V30 576 O 1.7494 8.1739 -13.2585 0 CHG=-1
M  V30 577 O 18.8781 37.1388 8.6279 0 CHG=-1
M  V30 578 O 18.2709 -1.7011 8.1969 0 CHG=-1
M  V30 579 O 18.8603 15.7507 -13.3069 0 CHG=-1
M  V30 580 O 2.3076 -1.7010 -12.9097 0 CHG=-1
M  V30 581 H 21.9365 41.8960 -8.1858 0
M  V30 582 H 21.8899 22.5744 -8.1586 0
M  V30 583 H 21.8743 30.2141 3.4513 0
M  V30 584 H -1.3105 22.5753 3.4459 0
M  V30 585 H 21.8544 3.3783 -8.1418 0
M  V30 586 H -1.3281 32.1934 3.4583 0
M  V30 587 H -1.3594 41.8955 3.4740 0
M  V30 588 H 21.8789 12.9814 -8.1523 0
M  V30 589 H 21.8540 39.8230 3.4304 0
M  V30 590 H -1.3013 12.9822 3.4389 0
M  V30 591 H 21.9027 32.1926 -8.1678 0
M  V30 592 H -1.3041 30.2199 -8.1568 0
M  V30 593 H 21.9059 11.0132 3.4565 0
M  V30 594 H 21.9382 1.3040 3.4761 0
M  V30 595 H -1.3111 20.6253 -8.1630 0
M  V30 596 H -1.3258 11.0092 -8.1736 0
M  V30 597 H 21.8927 20.6186 3.4486 0
M  V30 598 H -1.2769 3.3763 3.4288 0
M  V30 599 H -1.2765 39.8239 -8.1425 0
M  V30 600 H -1.3585 1.3042 -8.1845 0
M  V30 601 H 20.4900 44.4906 -8.4503 0
M  V30 602 H 0.1764 27.6433 -8.5379 0
M  V30 603 H 20.4053 18.0468 3.8311 0
M  V30 604 H 0.0885 -1.2904 -8.4504 0
M  V30 605 H 20.4166 34.7640 -8.5496 0
M  V30 606 H 0.1768 18.0562 -8.5460 0
M  V30 607 H 0.1759 37.2358 -8.5269 0
M  V30 608 H 20.4223 27.6226 3.8653 0
M  V30 609 H 0.0885 44.4903 3.7376 0
M  V30 610 H 20.4900 -1.2906 3.7378 0
M  V30 611 H 20.4033 37.2343 3.8147 0
M  V30 612 H 20.4051 5.9675 -8.5270 0
M  V30 613 H 0.1745 25.1477 3.8318 0
M  V30 614 H 0.1617 8.4382 -8.5492 0
M  V30 615 H 0.1614 34.7633 3.8361 0
M  V30 616 H 20.4119 8.4456 3.8336 0
M  V30 617 H 20.4029 25.1446 -8.5465 0
M  V30 618 H 0.1757 15.5591 3.8233 0
M  V30 619 H 0.1779 5.9614 3.8147 0
M  V30 620 H 20.4022 15.5597 -8.5360 0
M  V30 621 H 0.2290 32.3878 5.8020 0
M  V30 622 H 20.3596 39.6088 5.7839 0
M  V30 623 H 20.3499 32.3869 -10.5148 0
M  V30 624 H -0.0545 42.4353 6.0075 0
M  V30 625 H 20.3554 3.5895 -10.4921 0
M  V30 626 H 20.3607 22.7837 -10.5285 0
M  V30 627 H 20.3507 30.0121 5.8136 0
M  V30 628 H 20.3493 10.8157 5.8041 0
M  V30 629 H 20.6331 0.7646 6.0076 0
M  V30 630 H 0.2199 39.6102 -10.4963 0
M  V30 631 H 0.2188 22.7857 5.8145 0
M  V30 632 H 20.3584 20.4120 5.8097 0
M  V30 633 H -0.0546 0.7647 -10.7202 0
M  V30 634 H 0.2286 10.8134 -10.5154 0
M  V30 635 H 20.6331 42.4353 -10.7202 0
M  V30 636 H 0.2179 20.4167 -10.5287 0
M  V30 637 H 0.2209 13.1909 5.7999 0
M  V30 638 H 20.3566 13.1908 -10.5117 0
M  V30 639 H 0.2204 3.5893 5.7842 0
M  V30 640 H 0.2205 30.0102 -10.5133 0
M  V30 641 H 21.3266 33.7900 -10.7303 0
M  V30 642 H 21.5244 43.9497 -10.6895 0
M  V30 643 H -0.7484 33.7907 6.0170 0
M  V30 644 H 21.3277 4.9984 -10.7021 0
M  V30 645 H -0.7487 19.0038 -10.7250 0
M  V30 646 H -0.9459 43.9497 5.9768 0
M  V30 647 H -0.7479 9.4099 -10.7300 0
M  V30 648 H -0.9459 -0.7497 -10.6895 0
M  V30 649 H -0.7505 28.6003 -10.7145 0
M  V30 650 H 21.3282 14.5998 -10.7133 0
M  V30 651 H -0.7490 24.1970 6.0119 0
M  V30 652 H -0.7504 14.6001 6.0014 0
M  V30 653 H 21.3277 19.0018 6.0098 0
M  V30 654 H 21.3259 9.4109 6.0140 0
M  V30 655 H 21.5244 -0.7498 5.9769 0
M  V30 656 H 21.3303 38.1980 5.9907 0
M  V30 657 H 21.3270 24.1962 -10.7256 0
M  V30 658 H 21.3306 28.6092 6.0238 0
M  V30 659 H -0.7501 38.1993 -10.7030 0
M  V30 660 H -0.7501 5.0001 5.9899 0
M  V30 661 H 19.1064 25.5591 -10.7387 0
M  V30 662 H 19.1088 8.0345 6.0104 0
M  V30 663 H 19.1094 17.6355 6.0227 0
M  V30 664 H 1.1910 45.2316 5.8717 0
M  V30 665 H 19.1077 35.1659 -10.7237 0
M  V30 666 H 1.4638 15.9699 6.0412 0
M  V30 667 H 1.4556 36.8300 -10.7758 0
M  V30 668 H 1.4674 35.1702 6.0093 0
M  V30 669 H 19.3875 45.2316 -10.5845 0
M  V30 670 H 1.1910 -2.0315 -10.5845 0
M  V30 671 H 19.3876 -2.0316 5.8718 0
M  V30 672 H 1.4548 6.3706 6.0628 0
M  V30 673 H 1.4703 17.6412 -10.7349 0
M  V30 674 H 1.4689 25.5631 6.0255 0
M  V30 675 H 1.4640 27.2321 -10.7527 0
M  V30 676 H 19.1375 27.2149 6.0296 0
M  V30 677 H 19.1237 6.3707 -10.7765 0
M  V30 678 H 19.1153 15.9708 -10.7538 0
M  V30 679 H 19.1240 36.8282 6.0624 0
M  V30 680 H 1.4696 8.0327 -10.7236 0
M  V30 681 H 18.2790 19.1526 6.1466 0
M  V30 682 H 18.2805 14.4519 -10.8622 0
M  V30 683 H 2.2977 28.7497 -10.8622 0
M  V30 684 H 2.2994 24.0450 6.1491 0
M  V30 685 H 18.2786 24.0408 -10.8633 0
M  V30 686 H 2.3007 9.5504 -10.8531 0
M  V30 687 H 2.2988 38.3479 -10.8507 0
M  V30 688 H 2.1084 -0.5253 -10.6192 0
M  V30 689 H 18.2808 38.3461 6.1369 0
M  V30 690 H 18.2775 33.6490 -10.8530 0
M  V30 691 H 18.4701 43.7253 -10.6192 0
M  V30 692 H 18.4702 -0.5253 5.9064 0
M  V30 693 H 2.1084 43.7253 5.9064 0
M  V30 694 H 18.2827 28.7294 6.1454 0
M  V30 695 H 2.3003 33.6520 6.1392 0
M  V30 696 H 2.2999 19.1585 -10.8621 0
M  V30 697 H 18.2790 4.8539 -10.8507 0
M  V30 698 H 2.2989 4.8527 6.1378 0
M  V30 699 H 2.2976 14.4511 6.1493 0
M  V30 700 H 18.2765 9.5507 6.1399 0
M  V30 701 N 2.2762 33.7861 3.0728 0
M  V30 702 N 18.2836 38.2358 3.0599 0
M  V30 703 N 18.2818 28.5987 3.1061 0
M  V30 704 N 2.2294 43.4322 3.1075 0
M  V30 705 N 18.3007 33.7876 -7.7858 0
M  V30 706 N 18.3470 -0.2298 3.1077 0
M  V30 707 N 18.2969 24.1660 -7.7741 0
M  V30 708 N 2.2882 14.5691 3.0647 0
M  V30 709 N 18.2948 19.0276 3.0607 0
M  V30 710 N 18.2898 14.5682 -7.7720 0
M  V30 711 N 2.2943 38.2362 -7.7753 0
M  V30 712 N 18.2818 4.9699 -7.7766 0
M  V30 713 N 2.2754 9.4123 -7.7870 0
M  V30 714 N 2.2294 -0.2320 -7.8204 0
M  V30 715 N 18.3491 43.4320 -7.8203 0
M  V30 716 N 2.2900 28.6293 -7.7767 0
M  V30 717 N 2.2807 4.9667 3.0544 0
M  V30 718 N 2.2792 24.1735 3.0614 0
M  V30 719 N 18.2987 9.4167 3.0721 0
M  V30 720 N 2.2825 19.0327 -7.7726 0
M  V30 721 C 3.4641 38.7715 -7.1346 0
M  V30 722 C 3.4542 23.6278 2.4255 0
M  V30 723 C 3.4601 29.1717 -7.1361 0
M  V30 724 C 17.1691 42.8544 -7.2049 0
M  V30 725 C 3.4470 33.2397 2.4393 0
M  V30 726 C 17.1287 29.1471 2.4486 0
M  V30 727 C 17.1251 19.5717 2.4260 0
M  V30 728 C 3.4094 0.3456 -7.2050 0
M  V30 729 C 17.1692 0.3458 2.4923 0
M  V30 730 C 17.1242 23.6262 -7.1380 0
M  V30 731 C 17.1138 4.4302 -7.1351 0
M  V30 732 C 17.1309 33.2409 -7.1517 0
M  V30 733 C 3.4699 4.4248 2.4181 0
M  V30 734 C 3.4544 19.5741 -7.1365 0
M  V30 735 C 3.4473 9.9577 -7.1525 0
M  V30 736 C 3.4092 42.8542 2.4920 0
M  V30 737 C 3.4582 14.0286 2.4244 0
M  V30 738 C 17.1125 38.7710 2.4233 0
M  V30 739 C 17.1200 14.0243 -7.1339 0
M  V30 740 C 17.1275 9.9602 2.4372 0
M  V30 741 C 4.6096 -0.4839 -7.6852 0
M  V30 742 C 15.8940 28.3698 2.9030 0
M  V30 743 C 15.9076 34.0343 -7.6184 0
M  V30 744 C 4.6731 9.1639 -7.6166 0
M  V30 745 C 4.6842 5.2208 2.8935 0
M  V30 746 C 4.6764 18.7801 -7.6132 0
M  V30 747 C 4.6784 14.8201 2.9006 0
M  V30 748 C 15.9688 43.6840 -7.6852 0
M  V30 749 C 4.6757 24.4207 2.8989 0
M  V30 750 C 15.9039 24.4208 -7.6139 0
M  V30 751 C 15.9691 -0.4838 2.9724 0
M  V30 752 C 15.8934 37.9785 2.8960 0
M  V30 753 C 4.6830 37.9768 -7.6090 0
M  V30 754 C 4.6096 43.6840 2.9723 0
M  V30 755 C 15.9019 18.7767 2.8969 0
M  V30 756 C 15.8933 5.2214 -7.6066 0
M  V30 757 C 4.6711 34.0337 2.9053 0
M  V30 758 C 15.9030 9.1652 2.9021 0
M  V30 759 C 15.9026 14.8178 -7.6154 0
M  V30 760 C 4.6797 28.3784 -7.6124 0
M  V30 761 O 4.7531 16.0489 2.8397 0
M  V30 762 O 4.7514 35.2637 2.8338 0
M  V30 763 O 15.8257 35.2637 -7.5466 0
M  V30 764 O 4.7526 25.6504 2.8357 0
M  V30 765 O 15.8032 27.1447 2.8236 0
M  V30 766 O 4.7621 36.7536 -7.5369 0
M  V30 767 O 4.7562 17.5519 -7.5482 0
M  V30 768 O 4.6291 -1.7166 -7.6156 0
M  V30 769 O 4.7533 7.9347 -7.5468 0
M  V30 770 O 15.9494 44.9166 -7.6156 0
M  V30 771 O 15.8176 36.7522 2.8246 0
M  V30 772 O 15.8176 6.4494 -7.5359 0
M  V30 773 O 15.9497 -1.7165 2.9028 0
M  V30 774 O 15.8231 17.5488 2.8347 0
M  V30 775 O 15.8231 25.6468 -7.5506 0
M  V30 776 O 4.7529 27.1501 -7.5558 0
M  V30 777 O 4.7591 6.4486 2.8235 0
M  V30 778 O 15.8251 7.9348 2.8320 0
M  V30 779 O 15.8307 16.0445 -7.5621 0
M  V30 780 O 4.6289 44.9166 2.9028 0
M  V30 781 C 17.2058 42.8812 -5.6641 0
M  V30 782 C 3.3727 0.3188 -5.6641 0
M  V30 783 C 17.1974 33.2783 -5.6196 0
M  V30 784 C 3.3880 14.0777 0.8924 0
M  V30 785 C 3.3956 4.4752 0.8891 0
M  V30 786 C 3.3872 23.6743 0.8935 0
M  V30 787 C 3.3809 9.9208 -5.6198 0
M  V30 788 C 17.1913 19.5262 0.8935 0
M  V30 789 C 3.3727 42.8811 0.9513 0
M  V30 790 C 3.3877 19.5262 -5.6062 0
M  V30 791 C 3.3935 38.7243 -5.6044 0
M  V30 792 C 3.3883 29.1220 -5.6048 0
M  V30 793 C 17.1850 4.4765 -5.6039 0
M  V30 794 C 17.2059 0.3190 0.9514 0
M  V30 795 C 17.1914 23.6735 -5.6063 0
M  V30 796 C 17.1958 9.9218 0.9047 0
M  V30 797 C 3.3809 33.2778 0.9072 0
M  V30 798 C 17.2031 29.1099 0.9177 0
M  V30 799 C 17.1895 14.0764 -5.6033 0
M  V30 800 C 17.1852 38.7242 0.8921 0
M  V30 801 C 2.0271 38.5941 -4.9785 0
M  V30 802 C 18.5580 33.4159 -4.9826 0
M  V30 803 C 2.0231 23.8111 0.2641 0
M  V30 804 C 18.5551 19.3888 0.2635 0
M  V30 805 C 2.0231 19.3882 -4.9778 0
M  V30 806 C 2.0228 28.9881 -4.9777 0
M  V30 807 C 2.0204 9.7839 -4.9827 0
M  V30 808 C 2.0210 0.1770 -5.0078 0
M  V30 809 C 18.5515 38.5943 0.2664 0
M  V30 810 C 18.5647 28.9814 0.2827 0
M  V30 811 C 2.0209 43.0230 0.2950 0
M  V30 812 C 18.5511 4.6062 -4.9778 0
M  V30 813 C 18.5577 0.1770 0.2951 0
M  V30 814 C 18.5576 43.0230 -5.0078 0
M  V30 815 C 2.0274 4.6057 0.2654 0
M  V30 816 C 2.0227 14.2118 0.2649 0
M  V30 817 C 2.0204 33.4158 0.2697 0
M  V30 818 C 18.5554 23.8108 -4.9770 0
M  V30 819 C 18.5557 14.2111 -4.9766 0
M  V30 820 C 18.5573 9.7840 0.2694 0
M  V30 821 C 1.5475 15.4903 -0.0525 0
M  V30 822 C 19.0366 27.7046 -0.0414 0
M  V30 823 C 19.0288 44.3010 -4.6806 0
M  V30 824 C 1.5477 18.1094 -4.6610 0
M  V30 825 C 19.0303 18.1105 -0.0549 0
M  V30 826 C 1.5497 -1.1010 -4.6805 0
M  V30 827 C 1.5501 5.8848 -0.0502 0
M  V30 828 C 1.5456 8.5065 -4.6601 0
M  V30 829 C 19.0328 34.6934 -4.6599 0
M  V30 830 C 19.0284 37.3155 -0.0499 0
M  V30 831 C 1.5501 37.3154 -4.6627 0
M  V30 832 C 1.5480 25.0895 -0.0547 0
M  V30 833 C 19.0284 5.8849 -4.6621 0
M  V30 834 C 19.0289 -1.1010 -0.0321 0
M  V30 835 C 19.0305 25.0892 -4.6579 0
M  V30 836 C 1.5474 27.7096 -4.6603 0
M  V30 837 C 1.5497 44.3010 -0.0322 0
M  V30 838 C 19.0326 8.5063 -0.0526 0
M  V30 839 C 1.5457 34.6933 -0.0525 0
M  V30 840 C 19.0309 15.4898 -4.6592 0
M  V30 841 C 19.3837 20.4916 0.0273 0
M  V30 842 C 1.1979 1.2817 -4.7575 0
M  V30 843 C 1.1944 20.4911 -4.7414 0
M  V30 844 C 1.1935 32.3127 0.0296 0
M  V30 845 C 1.1931 10.8868 -4.7425 0
M  V30 846 C 19.3780 39.6988 0.0290 0
M  V30 847 C 1.1940 22.7085 0.0285 0
M  V30 848 C 1.2006 39.6987 -4.7412 0
M  V30 849 C 19.3806 41.9182 -4.7576 0
M  V30 850 C 19.3807 1.2817 0.0448 0
M  V30 851 C 19.3842 22.7081 -4.7413 0
M  V30 852 C 1.2006 3.5013 0.0283 0
M  V30 853 C 1.1979 41.9182 0.0448 0
M  V30 854 C 19.3873 30.0875 0.0341 0
M  V30 855 C 19.3850 32.3128 -4.7426 0
M  V30 856 C 19.3845 10.8870 0.0297 0
M  V30 857 C 1.1933 30.0903 -4.7403 0
M  V30 858 C 19.3856 13.1091 -4.7396 0
M  V30 859 C 1.1933 13.1096 0.0276 0
M  V30 860 C 19.3775 3.5015 -4.7401 0
M  V30 861 C 20.2976 27.5381 -0.6069 0
M  V30 862 C 0.2825 25.2586 -0.6097 0
M  V30 863 C 20.2933 37.1461 -0.6048 0
M  V30 864 C 0.2878 44.4647 -0.6006 0
M  V30 865 C 0.2827 17.9407 -4.1047 0
M  V30 866 C 0.2811 8.3388 -4.1015 0
M  V30 867 C 0.2878 -1.2648 -4.1122 0
M  V30 868 C 20.2908 44.4647 -4.1122 0
M  V30 869 C 0.2826 27.5403 -4.1043 0
M  V30 870 C 0.2851 37.1459 -4.1079 0
M  V30 871 C 0.2813 34.8611 -0.6112 0
M  V30 872 C 20.2935 6.0543 -4.1075 0
M  V30 873 C 20.2960 25.2583 -4.1031 0
M  V30 874 C 20.2959 17.9415 -0.6098 0
M  V30 875 C 0.2826 15.6597 -0.6086 0
M  V30 876 C 0.2852 6.0542 -0.6049 0
M  V30 877 C 20.2973 34.8611 -4.1015 0
M  V30 878 C 20.2908 -1.2647 -0.6005 0
M  V30 879 C 20.2959 15.6594 -4.1038 0
M  V30 880 C 20.2971 8.3388 -0.6109 0
M  V30 881 C -0.0636 39.5302 -4.1779 0
M  V30 882 C 20.6421 39.5303 -0.5346 0
M  V30 883 C -0.0686 22.8753 -0.5358 0
M  V30 884 C -0.0693 29.9233 -4.1760 0
M  V30 885 C 20.6467 20.3249 -0.5363 0
M  V30 886 C -0.0676 10.7220 -4.1740 0
M  V30 887 C -0.0585 42.0805 -0.5332 0
M  V30 888 C 20.6371 1.1195 -0.5332 0
M  V30 889 C 20.6419 3.6699 -4.1772 0
M  V30 890 C -0.0693 13.2767 -0.5369 0
M  V30 891 C 20.6458 32.4777 -4.1742 0
M  V30 892 C -0.0585 1.1194 -4.1796 0
M  V30 893 C -0.0683 20.3244 -4.1773 0
M  V30 894 C 20.6475 29.9212 -0.5369 0
M  V30 895 C -0.0636 3.6698 -0.5350 0
M  V30 896 C -0.0674 32.4776 -0.5387 0
M  V30 897 C 20.6468 22.8748 -4.1771 0
M  V30 898 C 20.6370 42.0805 -4.1796 0
M  V30 899 C 20.6454 10.7223 -0.5382 0
M  V30 900 C 20.6482 13.2764 -4.1758 0
M  V30 901 C -0.5189 33.7513 -0.8657 0
M  V30 902 C -0.5192 24.1497 -0.8623 0
M  V30 903 C 21.0976 19.0504 -0.8622 0
M  V30 904 C -0.5158 4.9454 -0.8586 0
M  V30 905 C 21.0976 28.6476 -0.8626 0
M  V30 906 C -0.5158 38.2546 -3.8542 0
M  V30 907 C -0.5189 19.0499 -3.8513 0
M  V30 908 C -0.5194 14.5513 -0.8624 0
M  V30 909 C 21.0943 38.2547 -0.8585 0
M  V30 910 C -0.5096 43.3533 -0.8614 0
M  V30 911 C 21.0943 4.9455 -3.8539 0
M  V30 912 C 21.0977 24.1492 -3.8507 0
M  V30 913 C -0.5095 -0.1534 -3.8513 0
M  V30 914 C -0.5190 9.4485 -3.8470 0
M  V30 915 C 21.0881 43.3533 -3.8513 0
M  V30 916 C 21.0881 -0.1533 -0.8614 0
M  V30 917 C 21.0971 9.4486 -0.8655 0
M  V30 918 C 21.0974 33.7514 -3.8471 0
M  V30 919 C -0.5194 28.6486 -3.8505 0
M  V30 920 C 21.0982 14.5513 -3.8502 0
M  V30 921 H 2.1714 15.5896 3.0468 0
M  V30 922 H 2.1826 37.2112 -7.7688 0
M  V30 923 H 2.1536 25.1870 3.0277 0
M  V30 924 H 18.3805 27.5763 3.1458 0
M  V30 925 H 2.1431 44.4414 3.1276 0
M  V30 926 H 2.1581 18.0161 -7.7474 0
M  V30 927 H 18.3965 37.2105 3.0516 0
M  V30 928 H 18.4352 44.4412 -7.8398 0
M  V30 929 H 18.4171 34.8016 -7.7751 0
M  V30 930 H 18.3917 5.9915 -7.7710 0
M  V30 931 H 18.4227 25.1848 -7.7417 0
M  V30 932 H 2.1432 -1.2412 -7.8397 0
M  V30 933 H 2.1844 5.9768 3.0527 0
M  V30 934 H 18.4189 18.0120 3.0336 0
M  V30 935 H 2.1594 8.3965 -7.7759 0
M  V30 936 H 18.4197 8.4002 3.0604 0
M  V30 937 H 2.1588 34.8036 3.0624 0
M  V30 938 H 2.1740 27.6128 -7.7593 0
M  V30 939 H 18.4054 15.5856 -7.7566 0
M  V30 940 H 18.4352 -1.2410 3.1270 0
M  V30 941 H 17.0028 39.8072 2.7519 0
M  V30 942 H 3.5666 20.6094 -7.4660 0
M  V30 943 H 3.5686 12.9921 2.7513 0
M  V30 944 H 17.0137 20.6072 2.7548 0
M  V30 945 H 3.5214 41.8261 2.8424 0
M  V30 946 H 3.5768 39.8078 -7.4637 0
M  V30 947 H 17.0216 32.2073 -7.4896 0
M  V30 948 H 3.5657 22.5919 2.7542 0
M  V30 949 H 17.0571 41.8262 -7.5552 0
M  V30 950 H 17.0252 30.1863 2.7782 0
M  V30 951 H 17.0035 3.3942 -7.4645 0
M  V30 952 H 17.0129 22.5903 -7.4665 0
M  V30 953 H 3.5582 10.9902 -7.4896 0
M  V30 954 H 17.0152 10.9938 2.7735 0
M  V30 955 H 17.0572 1.3741 2.8425 0
M  V30 956 H 3.5788 3.3905 2.7494 0
M  V30 957 H 3.5567 32.2065 2.7771 0
M  V30 958 H 3.5689 30.2075 -7.4638 0
M  V30 959 H 17.0103 12.9882 -7.4619 0
M  V30 960 H 3.5215 1.3738 -7.5552 0
M  V30 961 H 3.8590 41.9814 0.5657 0
M  V30 962 H 16.7084 32.3834 -5.2263 0
M  V30 963 H 16.7124 30.0017 0.5208 0
M  V30 964 H 3.8756 20.4186 -5.2045 0
M  V30 965 H 16.6939 39.6155 0.4920 0
M  V30 966 H 3.8590 1.2186 -5.2785 0
M  V30 967 H 3.8773 13.1867 0.4898 0
M  V30 968 H 3.8756 22.7818 0.4929 0
M  V30 969 H 3.8700 32.3831 0.5135 0
M  V30 970 H 16.7194 41.9814 -5.2785 0
M  V30 971 H 16.6937 3.5847 -5.2044 0
M  V30 972 H 16.7036 22.7807 -5.2057 0
M  V30 973 H 3.8707 10.8152 -5.2264 0
M  V30 974 H 16.7038 20.4200 0.4938 0
M  V30 975 H 3.8849 3.5845 0.4904 0
M  V30 976 H 3.8847 39.6156 -5.2040 0
M  V30 977 H 16.7196 1.2187 0.5658 0
M  V30 978 H 16.7077 10.8169 0.5110 0
M  V30 979 H 3.8774 30.0132 -5.2026 0
M  V30 980 H 16.7008 13.1864 -5.1995 0
M  V30 981 H 16.5819 14.9095 -5.2402 0
M  V30 982 H 3.9984 18.6952 -5.2412 0
M  V30 983 H 16.5839 34.1056 -5.2516 0
M  V30 984 H 16.5923 28.2850 0.5425 0
M  V30 985 H 3.9979 24.5052 0.5286 0
M  V30 986 H 16.5754 43.6952 -5.2896 0
M  V30 987 H 16.5799 18.6959 0.5274 0
M  V30 988 H 3.9944 34.1053 0.5392 0
M  V30 989 H 4.0031 43.6952 0.5768 0
M  V30 990 H 16.5790 37.8910 0.5252 0
M  V30 991 H 3.9974 28.2903 -5.2399 0
M  V30 992 H 3.9944 9.0936 -5.2514 0
M  V30 993 H 16.5755 -0.4951 0.5770 0
M  V30 994 H 4.0031 -0.4952 -5.2896 0
M  V30 995 H 16.5788 5.3095 -5.2367 0
M  V30 996 H 3.9973 14.9095 0.5272 0
M  V30 997 H 16.5804 24.5043 -5.2415 0
M  V30 998 H 3.9996 37.8909 -5.2375 0
M  V30 999 H 16.5829 9.0943 0.5365 0
M  V30 1000 H 3.9997 5.3092 0.5243 0
M  V30 1001 H 18.4277 16.3680 -4.8734 0
M  V30 1002 H 2.1505 26.8312 -4.8745 0
M  V30 1003 H 18.4232 45.1758 -4.8987 0
M  V30 1004 H 18.4266 17.2332 0.1591 0
M  V30 1005 H 2.1517 25.9668 0.1594 0
M  V30 1006 H 2.1553 45.1758 0.1859 0
M  V30 1007 H 18.4326 26.8273 0.1716 0
M  V30 1008 H 18.4297 35.5699 -4.8770 0
M  V30 1009 H 2.1521 36.4346 -4.8738 0
M  V30 1010 H 2.1486 35.5699 0.1648 0
M  V30 1011 H 18.4263 36.4347 0.1609 0
M  V30 1012 H 2.1486 7.6299 -4.8772 0
M  V30 1013 H 2.1515 17.2321 -4.8760 0
M  V30 1014 H 2.1505 16.3688 0.1618 0
M  V30 1015 H 18.4232 -1.9758 0.1860 0
M  V30 1016 H 18.4265 25.9664 -4.8716 0
M  V30 1017 H 18.4266 6.7657 -4.8735 0
M  V30 1018 H 2.1553 -1.9759 -4.8987 0
M  V30 1019 H 2.1520 6.7654 0.1609 0
M  V30 1020 H 18.4298 7.6297 0.1651 0
M  V30 1021 H 1.4858 11.8912 -5.0153 0
M  V30 1022 H 19.0711 40.7002 0.2950 0
M  V30 1023 H 1.4892 31.0939 -5.0089 0
M  V30 1024 H 1.4891 12.1060 0.2961 0
M  V30 1025 H 19.0900 40.9124 -5.0308 0
M  V30 1026 H 19.0903 11.8913 0.3026 0
M  V30 1027 H 1.4874 31.3084 0.3023 0
M  V30 1028 H 1.4912 21.4952 -5.0103 0
M  V30 1029 H 19.0899 12.1056 -5.0086 0
M  V30 1030 H 19.0900 2.2876 0.3177 0
M  V30 1031 H 1.4901 21.7047 0.2987 0
M  V30 1032 H 19.0895 31.0906 0.2984 0
M  V30 1033 H 1.4886 40.9124 0.3179 0
M  V30 1034 H 19.0864 21.4955 0.2961 0
M  V30 1035 H 1.5075 40.7000 -5.0073 0
M  V30 1036 H 19.0913 31.3085 -5.0156 0
M  V30 1037 H 19.0873 21.7044 -5.0114 0
M  V30 1038 H 19.0707 2.5003 -5.0066 0
M  V30 1039 H 1.4885 2.2875 -5.0309 0
M  V30 1040 H 1.5076 2.5000 0.2944 0
M  V30 1041 H -0.0866 16.6584 -0.8241 0
M  V30 1042 H 20.6661 26.5401 -0.8259 0
M  V30 1043 H -0.0912 45.4587 -0.8096 0
M  V30 1044 H 20.6650 16.6583 -3.8886 0
M  V30 1045 H 20.6697 45.4588 -3.9032 0
M  V30 1046 H -0.0882 16.9432 -3.8887 0
M  V30 1047 H -0.0825 36.1461 -3.8898 0
M  V30 1048 H 20.6697 -2.2588 -0.8096 0
M  V30 1049 H 20.6613 7.0541 -3.8898 0
M  V30 1050 H -0.0912 -2.2588 -3.9032 0
M  V30 1051 H -0.0825 7.0539 -0.8230 0
M  V30 1052 H 20.6670 26.2561 -3.8885 0
M  V30 1053 H 20.6609 36.1462 -0.8231 0
M  V30 1054 H -0.0920 35.8577 -0.8237 0
M  V30 1055 H 20.6706 35.8578 -3.8889 0
M  V30 1056 H -0.0921 7.3421 -3.8889 0
M  V30 1057 H 20.6668 16.9437 -0.8245 0
M  V30 1058 H -0.0884 26.2564 -0.8243 0
M  V30 1059 H 20.6706 7.3422 -0.8234 0
M  V30 1060 H -0.0867 26.5416 -3.8886 0
M  V30 1061 H 21.2849 40.3886 -0.7073 0
M  V30 1062 H -0.6969 41.2126 -0.6906 0
M  V30 1063 H -0.7110 30.7850 -4.0114 0
M  V30 1064 H 21.2876 30.7842 -0.7031 0
M  V30 1065 H 21.2754 41.2126 -4.0222 0
M  V30 1066 H -0.7064 40.3885 -4.0054 0
M  V30 1067 H -0.6969 1.9873 -4.0224 0
M  V30 1068 H 21.2876 21.1882 -0.6991 0
M  V30 1069 H -0.7063 31.6120 -0.7001 0
M  V30 1070 H 21.2878 22.0115 -4.0149 0
M  V30 1071 H 21.2848 2.8116 -4.0053 0
M  V30 1072 H -0.7064 11.5878 -4.0126 0
M  V30 1073 H 21.2901 12.4148 -4.0117 0
M  V30 1074 H -0.7111 12.4148 -0.7012 0
M  V30 1075 H -0.7064 2.8115 -0.7075 0
M  V30 1076 H -0.7096 22.0119 -0.6980 0
M  V30 1077 H 21.2753 1.9874 -0.6909 0
M  V30 1078 H -0.7089 21.1879 -4.0139 0
M  V30 1079 H 21.2844 11.5878 -0.6994 0
M  V30 1080 H 21.2848 31.6121 -4.0131 0
M  V30 1081 H -1.5124 14.6854 -1.2830 0
M  V30 1082 H -1.5062 -0.2739 -3.4366 0
M  V30 1083 H 22.0916 18.9195 -1.2814 0
M  V30 1084 H 22.0912 14.6855 -3.4298 0
M  V30 1085 H -1.5071 38.1158 -3.4297 0
M  V30 1086 H -1.5062 43.4739 -1.2762 0
M  V30 1087 H -1.5136 33.8782 -1.2838 0
M  V30 1088 H 22.0855 38.1159 -1.2832 0
M  V30 1089 H 22.0917 24.2802 -3.4317 0
M  V30 1090 H -1.5137 9.3216 -3.4286 0
M  V30 1091 H 22.0847 -0.2739 -1.2763 0
M  V30 1092 H 22.0921 33.8781 -3.4289 0
M  V30 1093 H 22.0903 28.5141 -1.2845 0
M  V30 1094 H -1.5132 24.2806 -1.2814 0
M  V30 1095 H 22.0858 5.0843 -3.4297 0
M  V30 1096 H -1.5071 5.0842 -1.2831 0
M  V30 1097 H -1.5125 18.9191 -3.4311 0
M  V30 1098 H 22.0847 43.4739 -3.4365 0
M  V30 1099 H 22.0919 9.3218 -1.2836 0
M  V30 1100 H -1.5123 28.5145 -3.4297 0
M  V30 1101 N 14.8914 14.0343 -8.1246 0
M  V30 1102 N 14.8957 33.2523 -8.1259 0
M  V30 1103 N 5.6829 33.2522 3.4126 0
M  V30 1104 N 5.6870 14.0378 3.4124 0
M  V30 1105 N 14.8921 19.5617 3.4096 0
M  V30 1106 N 5.6875 19.5635 -8.1222 0
M  V30 1107 N 14.8863 38.7621 3.4111 0
M  V30 1108 N 14.9161 0.2418 3.4821 0
M  V30 1109 N 14.8921 23.6367 -8.1214 0
M  V30 1110 N 14.8878 4.4396 -8.1263 0
M  V30 1111 N 5.6907 4.4398 3.4140 0
M  V30 1112 N 5.6625 0.2417 -8.1947 0
M  V30 1113 N 5.6836 9.9471 -8.1255 0
M  V30 1114 N 5.6921 38.7621 -8.1253 0
M  V30 1115 N 14.9157 42.9583 -8.1947 0
M  V30 1116 N 14.8912 29.1613 3.4153 0
M  V30 1117 N 5.6624 42.9584 3.4821 0
M  V30 1118 N 5.6855 23.6384 3.4098 0
M  V30 1119 N 14.8941 9.9466 3.4124 0
M  V30 1120 N 5.6878 29.1622 -8.1254 0
M  V30 1121 C 13.6884 28.5733 3.9397 0
M  V30 1122 C 13.6881 18.9734 3.9347 0
M  V30 1123 C 6.8931 38.1613 -8.6500 0
M  V30 1124 C 6.8880 14.6318 3.9384 0
M  V30 1125 C 6.8860 33.8356 3.9392 0
M  V30 1126 C 13.6844 38.1629 3.9356 0
M  V30 1127 C 13.6911 33.8371 -8.6514 0
M  V30 1128 C 13.7194 -0.4139 3.9658 0
M  V30 1129 C 13.7179 43.6138 -8.6783 0
M  V30 1130 C 13.6899 24.2274 -8.6487 0
M  V30 1131 C 13.6877 5.0375 -8.6512 0
M  V30 1132 C 6.8869 9.3612 -8.6522 0
M  V30 1133 C 6.8923 18.9748 -8.6468 0
M  V30 1134 C 6.8906 24.2254 3.9332 0
M  V30 1135 C 6.8922 5.0385 3.9387 0
M  V30 1136 C 6.8592 43.6140 3.9659 0
M  V30 1137 C 13.6907 14.6291 -8.6511 0
M  V30 1138 C 6.8592 -0.4139 -8.6785 0
M  V30 1139 C 13.6909 9.3623 3.9396 0
M  V30 1140 C 6.8904 28.5696 -8.6521 0
M  V30 1141 C 8.1282 19.7412 -8.2020 0
M  V30 1142 C 12.4556 33.0739 -8.2027 0
M  V30 1143 C 8.1254 13.8609 3.4918 0
M  V30 1144 C 8.1252 33.0740 3.4887 0
M  V30 1145 C 8.0900 42.7776 3.5893 0
M  V30 1146 C 12.4539 29.3417 3.4921 0
M  V30 1147 C 12.4498 38.9376 3.4763 0
M  V30 1148 C 8.1204 4.2660 3.4754 0
M  V30 1149 C 12.4883 42.7772 -8.3068 0
M  V30 1150 C 8.1201 10.1222 -8.2059 0
M  V30 1151 C 8.1207 38.9309 -8.1901 0
M  V30 1152 C 12.4543 23.4592 -8.2044 0
M  V30 1153 C 12.4570 4.2659 -8.1898 0
M  V30 1154 C 8.1255 23.4601 3.4885 0
M  V30 1155 C 12.4536 13.8586 -8.2064 0
M  V30 1156 C 12.4525 19.7380 3.4879 0
M  V30 1157 C 12.4889 0.4234 3.5910 0
M  V30 1158 C 8.0897 0.4233 -8.3041 0
M  V30 1159 C 12.4526 10.1235 3.4904 0
M  V30 1160 C 8.1271 29.3375 -8.2124 0
M  V30 1161 O 8.2099 12.6289 3.5436 0
M  V30 1162 O 8.2166 22.2318 3.5422 0
M  V30 1163 O 12.3647 30.5723 3.5392 0
M  V30 1164 O 12.3680 12.6273 -8.2572 0
M  V30 1165 O 8.2249 31.8442 3.5383 0
M  V30 1166 O 12.3757 40.1735 3.5056 0
M  V30 1167 O 8.2204 11.3498 -8.2651 0
M  V30 1168 O 12.4125 41.5566 -8.4321 0
M  V30 1169 O 12.4149 1.6447 3.7171 0
M  V30 1170 O 12.3640 22.2276 -8.2583 0
M  V30 1171 O 8.1969 3.0328 3.5067 0
M  V30 1172 O 8.2210 20.9727 -8.2517 0
M  V30 1173 O 8.1993 40.1608 -8.2200 0
M  V30 1174 O 12.3590 31.8442 -8.2560 0
M  V30 1175 O 8.1639 41.5556 3.7097 0
M  V30 1176 O 12.3614 20.9627 3.5350 0
M  V30 1177 O 12.3787 3.0317 -8.2224 0
M  V30 1178 O 12.3552 11.3518 3.5409 0
M  V30 1179 O 8.1635 1.6443 -8.4312 0
M  V30 1180 O 8.2108 30.5656 -8.2563 0
M  V30 1181 C 6.8761 14.5780 5.4567 0
M  V30 1182 C 13.7056 33.7797 -10.1699 0
M  V30 1183 C 6.8729 33.7797 5.4569 0
M  V30 1184 C 13.7021 19.0255 5.4532 0
M  V30 1185 C 6.8761 24.1747 5.4538 0
M  V30 1186 C 6.8727 9.4200 -10.1703 0
M  V30 1187 C 13.7027 14.5778 -10.1695 0
M  V30 1188 C 13.6954 38.2194 5.4531 0
M  V30 1189 C 13.7036 24.1748 -10.1671 0
M  V30 1190 C 6.8771 19.0260 -10.1667 0
M  V30 1191 C 13.6970 4.9818 -10.1688 0
M  V30 1192 C 13.7058 9.4198 5.4574 0
M  V30 1193 C 13.7584 43.8230 -10.1966 0
M  V30 1194 C 13.7013 28.6238 5.4564 0
M  V30 1195 C 6.8816 4.9817 5.4556 0
M  V30 1196 C 13.7584 -0.6229 5.4837 0
M  V30 1197 C 6.8814 38.2183 -10.1688 0
M  V30 1198 C 6.8201 43.8229 5.4837 0
M  V30 1199 C 6.8761 28.6222 -10.1700 0
M  V30 1200 C 6.8201 -0.6229 -10.1965 0
M  V30 1201 C 8.0547 15.3428 6.0190 0
M  V30 1202 C 12.5270 34.5407 -10.7342 0
M  V30 1203 C 8.0230 -1.4381 -10.6791 0
M  V30 1204 C 8.0542 24.9388 6.0168 0
M  V30 1205 C 12.5230 27.8595 6.0191 0
M  V30 1206 C 12.5241 18.2613 6.0166 0
M  V30 1207 C 12.5185 37.4554 6.0214 0
M  V30 1208 C 12.5556 44.6382 -10.6791 0
M  V30 1209 C 8.0517 34.5407 6.0214 0
M  V30 1210 C 12.5244 15.3435 -10.7313 0
M  V30 1211 C 8.0230 44.6381 5.9662 0
M  V30 1212 C 8.0545 18.2615 -10.7297 0
M  V30 1213 C 12.5556 -1.4381 5.9663 0
M  V30 1214 C 8.0589 37.4550 -10.7349 0
M  V30 1215 C 8.0515 8.6591 -10.7344 0
M  V30 1216 C 12.5248 24.9390 -10.7301 0
M  V30 1217 C 12.5195 5.7448 -10.7349 0
M  V30 1218 C 8.0589 5.7446 6.0218 0
M  V30 1219 C 12.5269 8.6588 6.0219 0
M  V30 1220 C 8.0548 27.8579 -10.7321 0
M  V30 1221 C 12.6624 15.4719 -12.2318 0
M  V30 1222 C 8.0435 44.8134 7.4782 0
M  V30 1223 C 7.9119 18.1324 -12.2295 0
M  V30 1224 C 12.6721 34.6669 -12.2336 0
M  V30 1225 C 8.0435 -1.6134 -12.1910 0
M  V30 1226 C 12.5350 44.8134 -12.1910 0
M  V30 1227 C 12.6587 37.3241 7.5231 0
M  V30 1228 C 12.6621 27.7288 7.5193 0
M  V30 1229 C 7.9198 37.3238 -12.2366 0
M  V30 1230 C 7.9064 8.5331 -12.2337 0
M  V30 1231 C 7.9118 25.0677 7.5167 0
M  V30 1232 C 12.5350 -1.6134 7.4782 0
M  V30 1233 C 12.6668 25.0678 -12.2299 0
M  V30 1234 C 12.6667 18.1324 7.5164 0
M  V30 1235 C 12.6587 5.8762 -12.2366 0
M  V30 1236 C 7.9064 34.6669 7.5209 0
M  V30 1237 C 7.9198 5.8762 7.5236 0
M  V30 1238 C 12.6726 8.5326 7.5211 0
M  V30 1239 C 7.9160 15.4718 7.5194 0
M  V30 1240 C 7.9162 27.7285 -12.2323 0
M  V30 1241 C 8.7958 16.5935 7.9405 0
M  V30 1242 C 11.7872 35.7799 -12.6609 0
M  V30 1243 C 8.7940 17.0150 -12.6538 0
M  V30 1244 C 11.7826 16.5934 -12.6533 0
M  V30 1245 C 9.3250 45.5273 7.8814 0
M  V30 1246 C 11.7826 26.6070 7.9406 0
M  V30 1247 C 8.7969 36.1983 -12.6578 0
M  V30 1248 C 8.7913 35.7799 7.9481 0
M  V30 1249 C 11.7817 36.1985 7.9447 0
M  V30 1250 C 8.7913 7.4202 -12.6609 0
M  V30 1251 C 11.2535 -2.3273 7.8814 0
M  V30 1252 C 11.7845 26.1852 -12.6539 0
M  V30 1253 C 8.7940 26.1851 7.9408 0
M  V30 1254 C 11.2535 45.5273 -12.5942 0
M  V30 1255 C 11.7816 7.0017 -12.6578 0
M  V30 1256 C 8.7969 7.0017 7.9449 0
M  V30 1257 C 11.7845 17.0151 7.9408 0
M  V30 1258 C 11.7871 7.4201 7.9482 0
M  V30 1259 C 8.7959 26.6068 -12.6535 0
M  V30 1260 C 9.3250 -2.3273 -12.5942 0
M  V30 1261 N 8.5053 17.1312 9.2665 0 CHG=1
M  V30 1262 N 12.0773 16.4805 9.2678 0 CHG=1
M  V30 1263 N 12.0736 26.0690 9.2664 0 CHG=1
M  V30 1264 N 12.0729 17.1308 -13.9795 0 CHG=1
M  V30 1265 N 8.5013 26.7196 9.2678 0 CHG=1
M  V30 1266 N 8.5091 35.6586 -13.9835 0 CHG=1
M  V30 1267 N 12.0800 6.8888 9.2760 0 CHG=1
M  V30 1268 N 8.4981 6.8889 -13.9887 0 CHG=1
M  V30 1269 N 12.0772 26.7198 -13.9808 0 CHG=1
M  V30 1270 N 12.0695 7.5414 -13.9835 0 CHG=1
M  V30 1271 N 8.5090 7.5414 9.2707 0 CHG=1
M  V30 1272 N 8.5013 16.4803 -13.9807 0 CHG=1
M  V30 1273 N 9.2830 -2.6130 -14.0450 0 CHG=1
M  V30 1274 N 12.0804 36.3111 -13.9888 0 CHG=1
M  V30 1275 N 9.2829 45.8131 9.3322 0 CHG=1
M  V30 1276 N 11.2955 45.8131 -14.0450 0 CHG=1
M  V30 1277 N 8.4981 36.3111 9.2760 0 CHG=1
M  V30 1278 N 11.2955 -2.6130 9.3322 0 CHG=1
M  V30 1279 N 12.0695 35.6587 9.2706 0 CHG=1
M  V30 1280 N 8.5053 26.0690 -13.9795 0 CHG=1
M  V30 1281 H 5.5764 13.0256 3.5040 0
M  V30 1282 H 15.0037 20.5758 3.4966 0
M  V30 1283 H 15.0077 32.2375 -8.2145 0
M  V30 1284 H 5.6075 1.2654 -8.2631 0
M  V30 1285 H 5.5859 39.7692 -8.2311 0
M  V30 1286 H 5.5711 32.2375 3.5015 0
M  V30 1287 H 14.9925 39.7711 3.5171 0
M  V30 1288 H 5.5722 10.9622 -8.2150 0
M  V30 1289 H 5.6076 41.9347 3.5502 0
M  V30 1290 H 14.9711 1.2655 3.5503 0
M  V30 1291 H 15.0013 22.6224 -8.2011 0
M  V30 1292 H 5.5774 20.5775 -8.2060 0
M  V30 1293 H 15.0071 30.1724 3.5053 0
M  V30 1294 H 5.5761 22.6243 3.4932 0
M  V30 1295 H 14.9931 3.4300 -8.2301 0
M  V30 1296 H 5.5854 3.4297 3.5172 0
M  V30 1297 H 15.0011 13.0224 -8.2159 0
M  V30 1298 H 14.9709 41.9345 -8.2631 0
M  V30 1299 H 15.0065 10.9614 3.5018 0
M  V30 1300 H 5.5760 30.1748 -8.2165 0
M  V30 1301 H 6.9606 25.2596 3.5830 0
M  V30 1302 H 13.6209 34.8714 -8.3046 0
M  V30 1303 H 13.6163 17.9413 3.5824 0
M  V30 1304 H 6.9606 6.0711 3.5852 0
M  V30 1305 H 6.9589 8.3291 -8.3042 0
M  V30 1306 H 13.6180 15.6586 -8.2951 0
M  V30 1307 H 13.6150 27.5413 3.5845 0
M  V30 1308 H 6.9610 37.1291 -8.2990 0
M  V30 1309 H 6.9370 44.5929 3.4744 0
M  V30 1310 H 13.6140 37.1322 3.5833 0
M  V30 1311 H 13.6414 -1.3927 3.4743 0
M  V30 1312 H 13.6171 25.2584 -8.2963 0
M  V30 1313 H 13.6170 6.0706 -8.2982 0
M  V30 1314 H 6.9611 15.6619 3.5840 0
M  V30 1315 H 13.6413 44.5923 -8.1874 0
M  V30 1316 H 6.9373 -1.3927 -8.1871 0
M  V30 1317 H 6.9633 17.9432 -8.2950 0
M  V30 1318 H 13.6189 8.3285 3.5920 0
M  V30 1319 H 6.9584 34.8708 3.5915 0
M  V30 1320 H 6.9609 27.5386 -8.2971 0
M  V30 1321 H 6.9221 13.5466 5.8199 0
M  V30 1322 H 6.8040 0.3494 -10.7042 0
M  V30 1323 H 13.6570 20.0568 5.8171 0
M  V30 1324 H 6.9217 20.0573 -10.5309 0
M  V30 1325 H 13.7745 42.8506 -10.7043 0
M  V30 1326 H 13.6564 29.6553 5.8204 0
M  V30 1327 H 6.9266 39.2505 -10.5286 0
M  V30 1328 H 6.9174 32.7470 5.8170 0
M  V30 1329 H 13.6502 39.2520 5.8144 0
M  V30 1330 H 6.9171 10.4528 -10.5303 0
M  V30 1331 H 13.6582 23.1439 -10.5315 0
M  V30 1332 H 6.8040 42.8506 5.9913 0
M  V30 1333 H 6.9213 23.1433 5.8175 0
M  V30 1334 H 13.6611 32.7469 -10.5300 0
M  V30 1335 H 6.9269 3.9490 5.8156 0
M  V30 1336 H 13.6565 13.5469 -10.5337 0
M  V30 1337 H 13.7745 0.3494 5.9914 0
M  V30 1338 H 13.6518 3.9491 -10.5289 0
M  V30 1339 H 13.6615 10.4524 5.8175 0
M  V30 1340 H 6.9220 29.6539 -10.5330 0
M  V30 1341 H 5.9347 14.9865 5.8318 0
M  V30 1342 H 5.9314 9.0113 -10.5477 0
M  V30 1343 H 5.8944 44.3420 5.7616 0
M  V30 1344 H 14.6442 14.9864 -10.5441 0
M  V30 1345 H 5.9344 24.5839 5.8300 0
M  V30 1346 H 5.9391 37.8113 -10.5449 0
M  V30 1347 H 5.9319 34.1884 5.8347 0
M  V30 1348 H 14.6842 44.3420 -10.4744 0
M  V30 1349 H 14.6446 24.5846 -10.5431 0
M  V30 1350 H 5.9350 18.6164 -10.5415 0
M  V30 1351 H 14.6842 -1.1420 5.7616 0
M  V30 1352 H 5.9399 5.3882 5.8315 0
M  V30 1353 H 14.6467 34.1883 -10.5479 0
M  V30 1354 H 5.8944 -1.1419 -10.4743 0
M  V30 1355 H 14.6391 5.3884 -10.5445 0
M  V30 1356 H 14.6375 37.8123 5.8279 0
M  V30 1357 H 14.6468 9.0108 5.8348 0
M  V30 1358 H 14.6436 18.6162 5.8289 0
M  V30 1359 H 5.9346 28.2140 -10.5451 0
M  V30 1360 H 14.6431 28.2151 5.8315 0
M  V30 1361 H 8.1287 16.3125 5.5188 0
M  V30 1362 H 8.0157 -2.4233 -10.1960 0
M  V30 1363 H 12.4490 35.5111 -10.2358 0
M  V30 1364 H 12.4512 16.3137 -10.2316 0
M  V30 1365 H 8.1358 36.4860 -10.2343 0
M  V30 1366 H 8.1296 35.5112 5.5230 0
M  V30 1367 H 8.1299 17.2921 -10.2292 0
M  V30 1368 H 12.4426 36.4864 5.5209 0
M  V30 1369 H 12.5628 45.6233 -10.1960 0
M  V30 1370 H 12.5628 -2.4233 5.4832 0
M  V30 1371 H 12.4490 25.9083 -10.2298 0
M  V30 1372 H 8.0157 45.6233 5.4832 0
M  V30 1373 H 12.4477 26.8905 5.5177 0
M  V30 1374 H 8.1298 25.9082 5.5166 0
M  V30 1375 H 8.1357 6.7139 5.5213 0
M  V30 1376 H 12.4428 6.7139 -10.2343 0
M  V30 1377 H 12.4486 17.2918 5.5164 0
M  V30 1378 H 8.1295 7.6888 -10.2358 0
M  V30 1379 H 12.4490 7.6884 5.5234 0
M  V30 1380 H 8.1294 26.8885 -10.2313 0
M  V30 1381 H 9.0072 24.4416 5.8023 0
M  V30 1382 H 8.9562 44.1443 5.6752 0
M  V30 1383 H 11.5746 34.0422 -10.5194 0
M  V30 1384 H 9.0105 37.9538 -10.5187 0
M  V30 1385 H 11.5714 14.8472 -10.5150 0
M  V30 1386 H 11.6224 44.1443 -10.3881 0
M  V30 1387 H 9.0040 34.0423 5.8067 0
M  V30 1388 H 9.0039 9.1576 -10.5197 0
M  V30 1389 H 11.5667 37.9537 5.8055 0
M  V30 1390 H 9.0077 18.7583 -10.5155 0
M  V30 1391 H 11.6224 -0.9442 5.6752 0
M  V30 1392 H 11.5719 24.4416 -10.5154 0
M  V30 1393 H 11.5678 5.2462 -10.5187 0
M  V30 1394 H 11.5706 28.3571 5.8038 0
M  V30 1395 H 11.5711 18.7584 5.8021 0
M  V30 1396 H 8.9562 -0.9443 -10.3880 0
M  V30 1397 H 9.0074 14.8460 5.8030 0
M  V30 1398 H 11.5747 9.1573 5.8072 0
M  V30 1399 H 9.0108 5.2461 5.8057 0
M  V30 1400 H 9.0076 28.3550 -10.5161 0
M  V30 1401 H 8.2513 14.5459 7.9955 0
M  V30 1402 H 8.0019 -0.6318 -12.6798 0
M  V30 1403 H 12.3358 19.0592 7.9938 0
M  V30 1404 H 12.3270 14.5458 -12.7076 0
M  V30 1405 H 8.2333 9.4617 -12.7101 0
M  V30 1406 H 8.0019 43.8318 7.9670 0
M  V30 1407 H 12.3271 28.6544 7.9962 0
M  V30 1408 H 8.2574 38.2487 -12.7130 0
M  V30 1409 H 12.5766 43.8318 -12.6798 0
M  V30 1410 H 12.3211 38.2488 7.9998 0
M  V30 1411 H 8.2333 33.7384 7.9973 0
M  V30 1412 H 8.2429 19.0591 -12.7068 0
M  V30 1413 H 8.2428 24.1409 7.9939 0
M  V30 1414 H 12.3452 33.7384 -12.7102 0
M  V30 1415 H 12.5766 -0.6318 7.9670 0
M  V30 1416 H 12.3356 24.1410 -12.7071 0
M  V30 1417 H 8.2574 4.9513 8.0002 0
M  V30 1418 H 12.3211 4.9513 -12.7130 0
M  V30 1419 H 12.3461 9.4613 7.9976 0
M  V30 1420 H 8.2514 28.6543 -12.7085 0
M  V30 1421 H 6.9024 15.5971 7.8553 0
M  V30 1422 H 7.1607 -2.1762 -12.5165 0
M  V30 1423 H 13.6863 34.8025 -12.5644 0
M  V30 1424 H 13.6759 15.5968 -12.5679 0
M  V30 1425 H 7.1607 45.3762 7.8037 0
M  V30 1426 H 6.9060 37.2023 -12.5744 0
M  V30 1427 H 13.6758 27.6035 7.8548 0
M  V30 1428 H 6.8977 18.0020 -12.5619 0
M  V30 1429 H 6.8921 8.3976 -12.5643 0
M  V30 1430 H 13.4178 -2.1762 7.8037 0
M  V30 1431 H 13.6809 18.0019 7.8489 0
M  V30 1432 H 13.6808 25.1982 -12.5628 0
M  V30 1433 H 13.4178 45.3762 -12.5165 0
M  V30 1434 H 13.6869 8.3965 7.8511 0
M  V30 1435 H 6.9060 5.9977 7.8615 0
M  V30 1436 H 6.8976 25.1982 7.8492 0
M  V30 1437 H 6.8921 34.8025 7.8515 0
M  V30 1438 H 13.6725 5.9978 -12.5743 0
M  V30 1439 H 13.6725 37.2026 7.8607 0
M  V30 1440 H 6.9026 27.6032 -12.5680 0
M  V30 1441 H 8.8664 17.4521 7.2646 0
M  V30 1442 H 11.7114 16.1545 7.2675 0
M  V30 1443 H 11.7132 36.6421 -11.9891 0
M  V30 1444 H 11.7121 17.4521 -11.9774 0
M  V30 1445 H 11.7113 25.7484 7.2649 0
M  V30 1446 H 8.8653 35.3405 -11.9810 0
M  V30 1447 H 8.8653 36.6421 7.2763 0
M  V30 1448 H 8.8673 16.1544 -11.9805 0
M  V30 1449 H 11.1353 46.4900 -12.0871 0
M  V30 1450 H 9.4432 46.4900 7.3743 0
M  V30 1451 H 11.1353 -3.2900 7.3743 0
M  V30 1452 H 11.7132 35.3406 7.2680 0
M  V30 1453 H 8.8669 27.0456 7.2674 0
M  V30 1454 H 9.4432 -3.2900 -12.0871 0
M  V30 1455 H 11.7116 27.0457 -11.9804 0
M  V30 1456 H 8.8653 7.8595 7.2681 0
M  V30 1457 H 8.8652 6.5579 -11.9891 0
M  V30 1458 H 11.7132 7.8595 -11.9809 0
M  V30 1459 H 11.7129 6.5580 7.2762 0
M  V30 1460 H 8.8669 25.7482 -11.9777 0
M  V30 1461 H 10.8374 16.0810 -12.7202 0
M  V30 1462 H 10.2085 44.9074 7.7052 0
M  V30 1463 H 10.8429 35.2650 -12.7259 0
M  V30 1464 H 9.7410 16.0813 8.0073 0
M  V30 1465 H 10.8373 27.1192 8.0079 0
M  V30 1466 H 10.8397 17.5284 8.0079 0
M  V30 1467 H 9.7356 35.2650 8.0131 0
M  V30 1468 H 9.7427 36.7095 -12.7232 0
M  V30 1469 H 9.7388 17.5283 -12.7208 0
M  V30 1470 H 10.8359 36.7096 8.0103 0
M  V30 1471 H 10.3700 -1.7073 7.7052 0
M  V30 1472 H 10.8397 25.6719 -12.7208 0
M  V30 1473 H 9.7427 6.4905 8.0104 0
M  V30 1474 H 10.8358 6.4905 -12.7232 0
M  V30 1475 H 9.7355 7.9350 -12.7259 0
M  V30 1476 H 10.2085 -1.7073 -12.4180 0
M  V30 1477 H 10.3700 44.9074 -12.4180 0
M  V30 1478 H 10.8430 7.9353 8.0131 0
M  V30 1479 H 9.7388 25.6718 8.0079 0
M  V30 1480 H 9.7412 27.1191 -12.7205 0
M  V30 1481 H 8.1715 16.4331 9.9289 0
M  V30 1482 H 12.4125 35.6007 -14.6411 0
M  V30 1483 H 8.9038 45.0109 9.8502 0
M  V30 1484 H 12.4068 16.4326 -14.6418 0
M  V30 1485 H 8.1815 36.3533 -14.6523 0
M  V30 1486 H 8.1661 35.6006 9.9283 0
M  V30 1487 H 8.1673 17.1848 -14.6372 0
M  V30 1488 H 8.1659 7.5994 -14.6410 0
M  V30 1489 H 12.3971 36.3533 9.9394 0
M  V30 1490 H 11.6747 45.0109 -14.5630 0
M  V30 1491 H 12.4109 26.0153 -14.6373 0
M  V30 1492 H 8.1817 6.8467 9.9395 0
M  V30 1493 H 12.4076 26.7669 9.9289 0
M  V30 1494 H 8.9037 -1.8109 -14.5630 0
M  V30 1495 H 12.3969 6.8468 -14.6523 0
M  V30 1496 H 12.4111 17.1850 9.9243 0
M  V30 1497 H 11.6748 -1.8109 9.8502 0
M  V30 1498 H 12.4128 7.5988 9.9284 0
M  V30 1499 H 8.1676 26.0151 9.9243 0
M  V30 1500 H 8.1714 26.7670 -14.6419 0
M  V30 1501 H 9.2123 17.7628 9.6410 0
M  V30 1502 H 10.2398 -2.7866 -14.3817 0
M  V30 1503 H 11.3680 36.9289 -14.3735 0
M  V30 1504 H 9.2106 36.9288 9.6607 0
M  V30 1505 H 9.2108 15.8558 -14.3601 0
M  V30 1506 H 10.3387 45.9867 -14.3817 0
M  V30 1507 H 11.3675 15.8560 9.6473 0
M  V30 1508 H 9.2104 6.2712 -14.3735 0
M  V30 1509 H 11.3627 35.0231 9.6412 0
M  V30 1510 H 10.2398 45.9867 9.6689 0
M  V30 1511 H 11.3674 27.3442 -14.3603 0
M  V30 1512 H 9.2160 8.1769 9.6413 0
M  V30 1513 H 9.2159 35.0230 -14.3542 0
M  V30 1514 H 11.3667 25.4374 9.6411 0
M  V30 1515 H 11.3625 8.1770 -14.3541 0
M  V30 1516 H 11.3661 17.7624 -14.3542 0
M  V30 1517 H 11.3675 6.2712 9.6607 0
M  V30 1518 H 9.2111 27.3440 9.6473 0
M  V30 1519 H 9.2122 25.4373 -14.3540 0
M  V30 1520 H 10.3387 -2.7866 9.6689 0
M  V30 1521 H 7.6461 17.7355 9.0744 0
M  V30 1522 H 12.9323 17.7350 -13.7880 0
M  V30 1523 H 12.9348 15.8747 9.0775 0
M  V30 1524 H 12.9366 36.9183 -13.8023 0
M  V30 1525 H 7.6437 27.3255 9.0775 0
M  V30 1526 H 8.6953 -3.4299 -14.2404 0
M  V30 1527 H 12.9326 25.4648 9.0741 0
M  V30 1528 H 7.6479 35.0567 -13.7936 0
M  V30 1529 H 7.6420 36.9183 9.0896 0
M  V30 1530 H 7.6436 15.8746 -13.7902 0
M  V30 1531 H 12.9306 35.0568 9.0807 0
M  V30 1532 H 7.6419 6.2817 -13.8023 0
M  V30 1533 H 11.8832 -3.4299 9.5276 0
M  V30 1534 H 12.9348 27.3256 -13.7905 0
M  V30 1535 H 8.6953 46.6299 9.5276 0
M  V30 1536 H 7.6480 8.1433 9.0808 0
M  V30 1537 H 11.8832 46.6300 -14.2404 0
M  V30 1538 H 12.9305 8.1433 -13.7936 0
M  V30 1539 H 12.9355 6.2806 9.0894 0
M  V30 1540 H 7.6462 25.4648 -13.7874 0
M  V30 1541 N 11.4060 14.6699 -7.8475 0
M  V30 1542 N 9.1728 14.6716 3.1340 0
M  V30 1543 N 11.4068 33.8865 -7.8348 0
M  V30 1544 N 9.1708 33.8865 3.1234 0
M  V30 1545 N 9.1367 -0.3419 -7.8447 0
M  V30 1546 N 11.4018 28.5304 3.1372 0
M  V30 1547 N 9.1738 38.1275 -7.8279 0
M  V30 1548 N 9.1811 18.9290 -7.8438 0
M  V30 1549 N 11.4396 43.5429 -7.8441 0
M  V30 1550 N 11.4038 38.1280 3.1163 0
M  V30 1551 N 9.1718 9.3130 -7.8350 0
M  V30 1552 N 11.4419 -0.3418 3.1321 0
M  V30 1553 N 9.1778 24.2716 3.1276 0
M  V30 1554 N 11.4034 24.2695 -7.8418 0
M  V30 1555 N 9.1730 5.0727 3.1153 0
M  V30 1556 N 11.4031 5.0733 -7.8301 0
M  V30 1557 N 11.4071 9.3132 3.1229 0
M  V30 1558 N 11.4004 18.9293 3.1280 0
M  V30 1559 N 9.1370 43.5426 3.1325 0
M  V30 1560 N 9.1770 28.5278 -7.8478 0
M  V30 1561 C 10.3749 14.1122 2.5546 0
M  V30 1562 C 10.1991 19.4915 2.5503 0
M  V30 1563 C 10.2068 33.3178 -7.2598 0
M  V30 1564 C 10.3776 23.7126 2.5520 0
M  V30 1565 C 10.2024 29.0882 2.5548 0
M  V30 1566 C 10.3187 0.2557 -7.2495 0
M  V30 1567 C 10.3764 38.6915 -7.2573 0
M  V30 1568 C 10.3845 19.4893 -7.2669 0
M  V30 1569 C 10.2023 38.6900 2.5441 0
M  V30 1570 C 10.2594 42.9440 -7.2495 0
M  V30 1571 C 10.3717 9.8829 -7.2602 0
M  V30 1572 C 10.2599 0.2559 2.5368 0
M  V30 1573 C 10.2008 23.7083 -7.2639 0
M  V30 1574 C 10.3718 33.3178 2.5469 0
M  V30 1575 C 10.3752 4.5088 2.5444 0
M  V30 1576 C 10.3186 42.9444 2.5366 0
M  V30 1577 C 10.2030 4.5083 -7.2568 0
M  V30 1578 C 10.2046 14.1119 -7.2670 0
M  V30 1579 C 10.2067 9.8825 2.5468 0
M  V30 1580 C 10.3756 29.0877 -7.2675 0
M  V30 1581 C 11.5599 14.9523 2.9930 0
M  V30 1582 C 9.0178 34.1534 -7.7009 0
M  V30 1583 C 11.5613 34.1532 2.9878 0
M  V30 1584 C 11.5625 24.5536 2.9930 0
M  V30 1585 C 11.4945 -0.6099 -7.6803 0
M  V30 1586 C 11.5608 37.8536 -7.6949 0
M  V30 1587 C 11.5730 18.6488 -7.7066 0
M  V30 1588 C 9.0840 43.8099 -7.6803 0
M  V30 1589 C 9.0151 37.8530 2.9816 0
M  V30 1590 C 11.5609 9.0468 -7.7006 0
M  V30 1591 C 9.0842 -0.6098 2.9675 0
M  V30 1592 C 9.0147 24.5489 -7.7068 0
M  V30 1593 C 9.0173 9.0469 2.9875 0
M  V30 1594 C 9.0127 18.6531 2.9930 0
M  V30 1595 C 11.5621 5.3464 2.9817 0
M  V30 1596 C 11.4943 43.8099 2.9675 0
M  V30 1597 C 9.0176 5.3464 -7.6945 0
M  V30 1598 C 9.0216 14.9534 -7.7058 0
M  V30 1599 C 9.0176 28.2482 2.9929 0
M  V30 1600 C 11.5597 28.2476 -7.7063 0
M  V30 1601 O 11.5815 16.1791 2.9054 0
M  V30 1602 O 8.9993 16.1801 -7.6163 0
M  V30 1603 O 8.9929 17.4244 2.9133 0
M  V30 1604 O 8.9904 35.3822 -7.6124 0
M  V30 1605 O 11.5817 25.7816 2.9100 0
M  V30 1606 O 8.9959 27.0213 2.9049 0
M  V30 1607 O 11.4664 -1.8374 -7.5592 0
M  V30 1608 O 11.5878 36.6286 -7.5968 0
M  V30 1609 O 11.5881 35.3821 2.8994 0
M  V30 1610 O 11.5889 17.4198 -7.6287 0
M  V30 1611 O 8.9885 36.6272 2.8836 0
M  V30 1612 O 9.1121 45.0375 -7.5592 0
M  V30 1613 O 11.4663 45.0375 2.8464 0
M  V30 1614 O 11.5879 7.8182 -7.6123 0
M  V30 1615 O 9.1123 -1.8374 2.8464 0
M  V30 1616 O 8.9955 25.7773 -7.6256 0
M  V30 1617 O 11.5886 6.5716 2.8847 0
M  V30 1618 O 8.9907 6.5715 -7.5966 0
M  V30 1619 O 8.9903 7.8181 2.8994 0
M  V30 1620 O 11.5813 27.0207 -7.6185 0
M  V30 1621 C 10.3431 33.2823 1.0223 0
M  V30 1622 C 10.2296 19.5211 1.0256 0
M  V30 1623 C 10.2355 33.2825 -5.7352 0
M  V30 1624 C 10.2325 29.1185 1.0311 0
M  V30 1625 C 10.3573 38.7403 -5.7327 0
M  V30 1626 C 10.3576 4.4594 1.0195 0
M  V30 1627 C 10.2522 0.2471 -5.7150 0
M  V30 1628 C 10.3505 19.5202 -5.7417 0
M  V30 1629 C 10.2203 38.7402 1.0180 0
M  V30 1630 C 10.3489 23.6798 1.0275 0
M  V30 1631 C 10.3264 42.9530 -5.7153 0
M  V30 1632 C 10.3432 9.9178 -5.7352 0
M  V30 1633 C 10.3264 0.2471 1.0024 0
M  V30 1634 C 10.2521 42.9529 1.0024 0
M  V30 1635 C 10.2300 23.6792 -5.7397 0
M  V30 1636 C 10.2213 4.4589 -5.7325 0
M  V30 1637 C 10.2355 9.9177 1.0222 0
M  V30 1638 C 10.2334 14.0822 -5.7432 0
M  V30 1639 C 10.3462 14.0817 1.0305 0
M  V30 1640 C 10.3463 29.1186 -5.7440 0
M  V30 1641 C 9.0098 14.3489 0.4381 0
M  V30 1642 C 11.5699 14.3503 -5.1523 0
M  V30 1643 C 11.5666 19.2544 0.4320 0
M  V30 1644 C 11.5722 33.5515 -5.1407 0
M  V30 1645 C 11.5693 28.8511 0.4383 0
M  V30 1646 C 9.0189 38.4960 -5.1314 0
M  V30 1647 C 8.9182 -0.1183 -5.1150 0
M  V30 1648 C 9.0066 33.5515 0.4281 0
M  V30 1649 C 9.0127 19.2539 -5.1476 0
M  V30 1650 C 11.5588 38.4965 0.4184 0
M  V30 1651 C 11.6604 43.3183 -5.1152 0
M  V30 1652 C 9.0065 9.6484 -5.1410 0
M  V30 1653 C 11.6604 -0.1183 0.4022 0
M  V30 1654 C 9.0124 23.9461 0.4328 0
M  V30 1655 C 11.5667 23.9457 -5.1457 0
M  V30 1656 C 9.0189 4.7036 0.4184 0
M  V30 1657 C 11.5601 4.7025 -5.1313 0
M  V30 1658 C 8.9181 43.3183 0.4023 0
M  V30 1659 C 11.5721 9.6483 0.4282 0
M  V30 1660 C 9.0100 28.8512 -5.1512 0
M  V30 1661 C 8.6680 15.5659 -0.0575 0
M  V30 1662 C 11.9101 18.0385 -0.0654 0
M  V30 1663 C 11.9154 34.7677 -4.6419 0
M  V30 1664 C 8.6691 25.1618 -0.0649 0
M  V30 1665 C 8.6058 -1.3596 -4.5733 0
M  V30 1666 C 8.6621 37.2632 -4.6758 0
M  V30 1667 C 8.6628 34.7675 -0.0709 0
M  V30 1668 C 8.6058 44.5596 -0.1395 0
M  V30 1669 C 8.6695 18.0383 -4.6490 0
M  V30 1670 C 11.9159 8.4323 -0.0709 0
M  V30 1671 C 11.9728 44.5596 -4.5734 0
M  V30 1672 C 8.6629 8.4324 -4.6419 0
M  V30 1673 C 11.9727 -1.3595 -0.1395 0
M  V30 1674 C 11.9106 27.6339 -0.0575 0
M  V30 1675 C 11.9099 25.1614 -4.6476 0
M  V30 1676 C 8.6623 5.9364 -0.0371 0
M  V30 1677 C 11.9165 37.2637 -0.0372 0
M  V30 1678 C 11.9127 15.5678 -4.6589 0
M  V30 1679 C 11.9169 5.9354 -4.6759 0
M  V30 1680 C 8.6686 27.6341 -4.6557 0
M  V30 1681 C 8.0389 13.3724 0.4326 0
M  V30 1682 C 12.5407 13.3734 -5.1464 0
M  V30 1683 C 12.5361 20.2318 0.4279 0
M  V30 1684 C 12.5415 32.5746 -5.1394 0
M  V30 1685 C 8.0428 22.9688 0.4286 0
M  V30 1686 C 7.9229 42.3664 0.4162 0
M  V30 1687 C 12.5398 29.8274 0.4327 0
M  V30 1688 C 8.0635 39.4912 -5.0939 0
M  V30 1689 C 8.0368 32.5743 0.4266 0
M  V30 1690 C 8.0435 20.2311 -5.1425 0
M  V30 1691 C 12.5145 39.4918 0.3801 0
M  V30 1692 C 12.6557 42.3665 -5.1292 0
M  V30 1693 C 8.0368 10.6254 -5.1399 0
M  V30 1694 C 12.6556 0.8337 0.4162 0
M  V30 1695 C 12.5364 22.9684 -5.1418 0
M  V30 1696 C 8.0637 3.7084 0.3806 0
M  V30 1697 C 12.5152 3.7070 -5.0933 0
M  V30 1698 C 12.5420 10.6255 0.4270 0
M  V30 1699 C 7.9229 0.8336 -5.1291 0
M  V30 1700 C 8.0391 29.8275 -5.1457 0
M  V30 1701 C 7.4035 25.3155 -0.5730 0
M  V30 1702 C 13.1756 15.7230 -4.1476 0
M  V30 1703 C 13.1856 34.9242 -4.1435 0
M  V30 1704 C 13.1736 27.4793 -0.5712 0
M  V30 1705 C 7.3905 37.0988 -4.1896 0
M  V30 1706 C 7.3397 -1.5969 -4.0201 0
M  V30 1707 C 7.4037 17.8849 -4.1403 0
M  V30 1708 C 13.1880 37.0992 -0.5230 0
M  V30 1709 C 13.2388 44.7969 -4.0201 0
M  V30 1710 C 7.3397 44.7969 -0.6927 0
M  V30 1711 C 7.3933 8.2754 -4.1436 0
M  V30 1712 C 13.2388 -1.5967 -0.6928 0
M  V30 1713 C 13.1754 25.3151 -4.1396 0
M  V30 1714 C 7.3905 6.1008 -0.5233 0
M  V30 1715 C 13.1759 17.8848 -0.5728 0
M  V30 1716 C 13.1885 6.0999 -4.1898 0
M  V30 1717 C 13.1854 8.2754 -0.5696 0
M  V30 1718 C 7.4056 15.7208 -0.5711 0
M  V30 1719 C 7.3931 34.9245 -0.5692 0
M  V30 1720 C 7.4063 27.4789 -4.1421 0
M  V30 1721 C 6.8338 13.5224 -0.2531 0
M  V30 1722 C 13.7428 20.0843 -0.2561 0
M  V30 1723 C 13.7481 32.7234 -4.4555 0
M  V30 1724 C 6.8366 23.1165 -0.2563 0
M  V30 1725 C 6.7456 42.5450 -0.3066 0
M  V30 1726 C 6.8498 39.3208 -4.4261 0
M  V30 1727 C 6.7456 0.6549 -4.4062 0
M  V30 1728 C 6.8369 20.0838 -4.4571 0
M  V30 1729 C 13.7285 39.3213 -0.2868 0
M  V30 1730 C 13.8329 42.5451 -4.4062 0
M  V30 1731 C 6.8307 10.4761 -4.4556 0
M  V30 1732 C 13.8329 0.6552 -0.3068 0
M  V30 1733 C 13.7428 23.1160 -4.4571 0
M  V30 1734 C 13.7453 29.6775 -0.2529 0
M  V30 1735 C 6.8498 3.8788 -0.2871 0
M  V30 1736 C 6.8304 32.7235 -0.2570 0
M  V30 1737 C 13.7291 3.8776 -4.4259 0
M  V30 1738 C 13.7462 13.5241 -4.4619 0
M  V30 1739 C 13.7482 10.4764 -0.2568 0
M  V30 1740 C 6.8341 29.6773 -4.4599 0
M  V30 1741 C 6.4543 14.7404 -0.6710 0
M  V30 1742 C 14.1269 14.7425 -4.0467 0
M  V30 1743 C 14.1341 33.9422 -4.0452 0
M  V30 1744 C 6.4537 24.3342 -0.6721 0
M  V30 1745 C 14.1342 9.2581 -0.6681 0
M  V30 1746 C 14.1249 28.4592 -0.6704 0
M  V30 1747 C 6.4229 43.7698 -0.8190 0
M  V30 1748 C 6.4540 18.8661 -4.0413 0
M  V30 1749 C 6.4230 -0.5698 -3.8938 0
M  V30 1750 C 14.1556 43.7699 -3.8938 0
M  V30 1751 C 6.4443 9.2579 -4.0450 0
M  V30 1752 C 14.1555 -0.5696 -0.8192 0
M  V30 1753 C 14.1253 24.3336 -4.0408 0
M  V30 1754 C 6.4552 38.0888 -4.0557 0
M  V30 1755 C 6.4442 33.9418 -0.6677 0
M  V30 1756 C 6.4553 5.1109 -0.6573 0
M  V30 1757 C 14.1237 5.1098 -4.0558 0
M  V30 1758 C 14.1233 38.0894 -0.6571 0
M  V30 1759 C 14.1255 18.8665 -0.6718 0
M  V30 1760 C 6.4548 28.4591 -4.0421 0
M  V30 1761 H 9.0324 15.6826 3.0079 0
M  V30 1762 H 11.5479 15.6807 -7.7214 0
M  V30 1763 H 11.5462 17.9200 2.9962 0
M  V30 1764 H 11.5571 34.8929 -7.6934 0
M  V30 1765 H 9.0287 25.2817 2.9960 0
M  V30 1766 H 11.5472 27.5191 3.0076 0
M  V30 1767 H 9.0369 37.1127 -7.7096 0
M  V30 1768 H 9.0219 34.8926 2.9803 0
M  V30 1769 H 9.0330 17.9214 -7.7101 0
M  V30 1770 H 11.5388 37.1112 2.9978 0
M  V30 1771 H 9.0140 -1.3336 -7.6738 0
M  V30 1772 H 11.5646 44.5343 -7.6738 0
M  V30 1773 H 9.0141 44.5341 2.9613 0
M  V30 1774 H 9.0212 8.3087 -7.6926 0
M  V30 1775 H 11.5646 -1.3335 2.9612 0
M  V30 1776 H 11.5488 25.2779 -7.7093 0
M  V30 1777 H 9.0373 6.0865 2.9972 0
M  V30 1778 H 11.5567 8.3077 2.9797 0
M  V30 1779 H 11.5417 6.0867 -7.7088 0
M  V30 1780 H 9.0315 27.5173 -7.7204 0
M  V30 1781 H 10.4890 13.0948 2.9334 0
M  V30 1782 H 10.4911 22.6954 2.9323 0
M  V30 1783 H 10.4812 32.3010 2.9295 0
M  V30 1784 H 10.0893 13.0944 -7.6455 0
M  V30 1785 H 10.0881 20.5097 2.9283 0
M  V30 1786 H 10.4392 41.9265 2.9174 0
M  V30 1787 H 10.0982 32.3013 -7.6427 0
M  V30 1788 H 10.0885 30.1058 2.9338 0
M  V30 1789 H 10.4866 39.7066 -7.6457 0
M  V30 1790 H 10.4973 20.5069 -7.6454 0
M  V30 1791 H 10.0879 39.7056 2.9310 0
M  V30 1792 H 10.4394 1.2736 -7.6301 0
M  V30 1793 H 10.1390 41.9266 -7.6301 0
M  V30 1794 H 10.4809 10.8997 -7.6424 0
M  V30 1795 H 10.1392 1.2737 2.9174 0
M  V30 1796 H 10.0887 22.6905 -7.6425 0
M  V30 1797 H 10.4871 3.4937 2.9331 0
M  V30 1798 H 10.0973 10.8994 2.9293 0
M  V30 1799 H 10.0914 3.4931 -7.6457 0
M  V30 1800 H 10.4890 30.1053 -7.6470 0
M  V30 1801 H 10.6632 13.0914 0.6910 0
M  V30 1802 H 9.9120 20.5105 0.6841 0
M  V30 1803 H 9.9192 32.2908 -5.3987 0
M  V30 1804 H 10.6667 22.6896 0.6884 0
M  V30 1805 H 9.9157 30.1088 0.6913 0
M  V30 1806 H 10.6954 39.7283 -5.4056 0
M  V30 1807 H 10.6593 32.2907 0.6856 0
M  V30 1808 H 10.6676 20.5101 -5.4004 0
M  V30 1809 H 9.8824 39.7281 0.6916 0
M  V30 1810 H 10.5294 1.2496 -5.3608 0
M  V30 1811 H 10.0491 41.9506 -5.3609 0
M  V30 1812 H 10.6594 10.9093 -5.3983 0
M  V30 1813 H 10.0490 1.2495 0.6481 0
M  V30 1814 H 10.5294 41.9505 0.6481 0
M  V30 1815 H 9.9119 22.6901 -5.3980 0
M  V30 1816 H 10.6957 3.4715 0.6931 0
M  V30 1817 H 9.9194 10.9092 0.6853 0
M  V30 1818 H 9.9171 13.0920 -5.4032 0
M  V30 1819 H 9.8829 3.4711 -5.4057 0
M  V30 1820 H 10.6632 30.1090 -5.4046 0
M  V30 1821 H 9.5163 18.8197 0.5870 0
M  V30 1822 H 9.5187 14.7816 -5.3030 0
M  V30 1823 H 9.5201 33.9805 -5.2946 0
M  V30 1824 H 11.0629 24.3799 0.5879 0
M  V30 1825 H 9.5179 28.4191 0.5909 0
M  V30 1826 H 11.0641 38.0319 -5.2912 0
M  V30 1827 H 11.0634 18.8194 -5.3012 0
M  V30 1828 H 11.0584 33.9805 0.5816 0
M  V30 1829 H 9.5744 43.6154 -5.2860 0
M  V30 1830 H 11.0045 -0.4151 -5.2856 0
M  V30 1831 H 11.0584 9.2196 -5.2946 0
M  V30 1832 H 9.5743 -0.4153 0.5732 0
M  V30 1833 H 9.5166 24.3809 -5.3013 0
M  V30 1834 H 11.0042 43.6153 0.5731 0
M  V30 1835 H 11.0641 5.1680 0.5783 0
M  V30 1836 H 9.5202 9.2194 0.5815 0
M  V30 1837 H 9.5151 5.1676 -5.2908 0
M  V30 1838 H 11.0610 14.7812 0.5904 0
M  V30 1839 H 9.5137 38.0320 0.5763 0
M  V30 1840 H 11.0611 28.4193 -5.3039 0
M  V30 1841 H 9.3228 16.4202 -0.0457 0
M  V30 1842 H 11.2576 16.4220 -4.6701 0
M  V30 1843 H 11.2545 17.1857 -0.0588 0
M  V30 1844 H 11.2561 35.6173 -4.6422 0
M  V30 1845 H 9.3245 26.0148 -0.0579 0
M  V30 1846 H 11.2559 26.7799 -0.0458 0
M  V30 1847 H 9.3073 36.4002 -4.7162 0
M  V30 1848 H 9.3225 35.6172 -0.0706 0
M  V30 1849 H 9.3247 17.1854 -4.6549 0
M  V30 1850 H 11.2712 36.4004 0.0035 0
M  V30 1851 H 11.2398 45.3554 -4.5836 0
M  V30 1852 H 9.3388 -2.1554 -4.5836 0
M  V30 1853 H 9.3388 45.3554 -0.1292 0
M  V30 1854 H 9.3226 7.5827 -4.6422 0
M  V30 1855 H 11.2398 -2.1554 -0.1292 0
M  V30 1856 H 11.2544 26.0143 -4.6543 0
M  V30 1857 H 9.3074 6.7994 0.0035 0
M  V30 1858 H 11.2562 7.5826 -0.0706 0
M  V30 1859 H 11.2715 6.7984 -4.7165 0
M  V30 1860 H 9.3236 26.7800 -4.6679 0
M  V30 1861 H 8.2731 12.4946 1.0169 0
M  V30 1862 H 12.3003 21.1102 1.0112 0
M  V30 1863 H 12.3065 31.6929 -5.7194 0
M  V30 1864 H 8.1197 41.4725 1.0011 0
M  V30 1865 H 8.1197 1.7275 -5.7139 0
M  V30 1866 H 12.3058 30.7054 1.0168 0
M  V30 1867 H 8.3040 40.3986 -5.6304 0
M  V30 1868 H 8.2787 21.1104 -5.7248 0
M  V30 1869 H 12.4589 41.4725 -5.7140 0
M  V30 1870 H 8.2722 31.6927 1.0066 0
M  V30 1871 H 8.2719 11.5069 -5.7202 0
M  V30 1872 H 12.4588 1.7276 1.0011 0
M  V30 1873 H 12.3010 22.0896 -5.7249 0
M  V30 1874 H 8.3040 2.8009 0.9171 0
M  V30 1875 H 12.2738 40.3993 0.9163 0
M  V30 1876 H 12.3067 11.5070 1.0072 0
M  V30 1877 H 8.2781 22.0900 1.0117 0
M  V30 1878 H 12.3051 12.4947 -5.7289 0
M  V30 1879 H 12.2746 2.7993 -5.6292 0
M  V30 1880 H 8.2730 30.7055 -5.7298 0
M  V30 1881 H 7.2385 16.6543 -1.0055 0
M  V30 1882 H 13.3470 16.9503 -1.0030 0
M  V30 1883 H 7.0762 45.7656 -1.0931 0
M  V30 1884 H 13.3629 35.8603 -3.7206 0
M  V30 1885 H 13.3400 26.5454 -1.0060 0
M  V30 1886 H 7.1890 36.1410 -3.8296 0
M  V30 1887 H 7.2156 35.8602 -0.9922 0
M  V30 1888 H 7.2332 16.9505 -3.7093 0
M  V30 1889 H 13.3898 36.1413 -0.8829 0
M  V30 1890 H 13.5023 45.7656 -3.6197 0
M  V30 1891 H 7.0762 -2.5656 -3.6197 0
M  V30 1892 H 7.2157 7.3397 -3.7206 0
M  V30 1893 H 13.5023 -2.5654 -1.0932 0
M  V30 1894 H 7.2332 26.2498 -1.0040 0
M  V30 1895 H 13.3458 26.2494 -3.7089 0
M  V30 1896 H 7.1890 7.0588 -0.8831 0
M  V30 1897 H 13.3630 7.3398 -0.9930 0
M  V30 1898 H 13.3433 16.6567 -3.7144 0
M  V30 1899 H 13.3900 7.0579 -3.8300 0
M  V30 1900 H 7.2395 26.5451 -3.7078 0
M  V30 1901 H 6.1431 12.7416 -0.5251 0
M  V30 1902 H 14.4360 30.4582 -0.5248 0
M  V30 1903 H 14.4347 31.9392 -4.1811 0
M  V30 1904 H 6.1477 22.3333 -0.5275 0
M  V30 1905 H 6.1438 31.9390 -0.5315 0
M  V30 1906 H 14.4169 40.0974 -0.5758 0
M  V30 1907 H 6.1480 20.8671 -4.1862 0
M  V30 1908 H 14.5344 41.7507 -4.1916 0
M  V30 1909 H 14.4318 20.8677 -0.5264 0
M  V30 1910 H 6.0441 41.7506 -0.5211 0
M  V30 1911 H 6.0442 1.4493 -4.1916 0
M  V30 1912 H 6.1441 11.2602 -4.1805 0
M  V30 1913 H 14.5343 1.4496 -0.5212 0
M  V30 1914 H 6.1615 40.0967 -4.1368 0
M  V30 1915 H 14.4318 22.3326 -4.1866 0
M  V30 1916 H 6.1614 3.1029 -0.5761 0
M  V30 1917 H 14.4349 11.2608 -0.5311 0
M  V30 1918 H 14.4358 12.7429 -4.1878 0
M  V30 1919 H 14.4174 3.1015 -4.1370 0
M  V30 1920 H 6.1432 30.4579 -4.1878 0
M  V30 1921 H 5.4853 14.8614 -1.1455 0
M  V30 1922 H 15.0959 14.8645 -3.5725 0
M  V30 1923 H 15.0961 18.7501 -1.1448 0
M  V30 1924 H 15.1063 34.0545 -3.5739 0
M  V30 1925 H 5.4831 24.4503 -1.1451 0
M  V30 1926 H 15.0944 28.3389 -1.1447 0
M  V30 1927 H 5.4832 37.9506 -3.5912 0
M  V30 1928 H 5.4722 34.0544 -1.1388 0
M  V30 1929 H 5.4833 18.7500 -3.5681 0
M  V30 1930 H 15.0954 37.9511 -1.1214 0
M  V30 1931 H 15.1048 43.8688 -3.3733 0
M  V30 1932 H 5.4737 43.8688 -1.3394 0
M  V30 1933 H 5.4737 -0.6688 -3.3734 0
M  V30 1934 H 5.4723 9.1454 -3.5739 0
M  V30 1935 H 15.1047 -0.6686 -1.3397 0
M  V30 1936 H 15.0959 24.4500 -3.5680 0
M  V30 1937 H 5.4832 5.2490 -1.1218 0
M  V30 1938 H 15.1061 9.1456 -1.1395 0
M  V30 1939 H 15.0957 5.2483 -3.5916 0
M  V30 1940 H 5.4857 28.3378 -3.5679 0
M  V30 1941 N 12.5876 33.4177 3.5183 0
M  V30 1942 N 7.9813 19.3861 3.5178 0
M  V30 1943 N 12.5933 23.8212 3.5199 0
M  V30 1944 N 12.5881 14.2175 3.5214 0
M  V30 1945 N 7.9916 33.4176 -8.2313 0
M  V30 1946 N 7.9885 28.9825 3.5200 0
M  V30 1947 N 12.5849 38.5909 -8.2282 0
M  V30 1948 N 12.6107 19.3776 -8.2260 0
M  V30 1949 N 7.9915 38.5904 3.5151 0
M  V30 1950 N 8.0311 43.1286 -8.2314 0
M  V30 1951 N 12.5475 0.0715 -8.2313 0
M  V30 1952 N 12.5875 9.7824 -8.2310 0
M  V30 1953 N 8.0312 0.0713 3.5187 0
M  V30 1954 N 7.9829 23.8168 -8.2325 0
M  V30 1955 N 12.5876 4.6087 3.5122 0
M  V30 1956 N 7.9908 9.7826 3.5183 0
M  V30 1957 N 12.5472 43.1288 3.5188 0
M  V30 1958 N 7.9968 14.2198 -8.2383 0
M  V30 1959 N 7.9931 4.6091 -8.2281 0
M  V30 1960 N 12.5877 28.9821 -8.2337 0
M  V30 1961 C 13.8108 14.8557 3.9542 0
M  V30 1962 C 6.7585 18.7492 3.9557 0
M  V30 1963 C 6.7653 34.0473 -8.6666 0
M  V30 1964 C 13.8158 24.4587 3.9564 0
M  V30 1965 C 13.8082 37.9516 -8.6602 0
M  V30 1966 C 13.8138 34.0475 3.9537 0
M  V30 1967 C 13.8324 18.7349 -8.6675 0
M  V30 1968 C 6.7685 37.9515 3.9470 0
M  V30 1969 C 6.8336 43.8263 -8.6611 0
M  V30 1970 C 13.7450 -0.6263 -8.6613 0
M  V30 1971 C 13.8134 9.1524 -8.6666 0
M  V30 1972 C 6.8336 -0.6263 3.9483 0
M  V30 1973 C 6.7593 24.4532 -8.6694 0
M  V30 1974 C 6.7652 28.3441 3.9526 0
M  V30 1975 C 13.8115 5.2476 3.9452 0
M  V30 1976 C 13.7448 43.8264 3.9484 0
M  V30 1977 C 6.7648 9.1525 3.9536 0
M  V30 1978 C 6.7762 14.8584 -8.6709 0
M  V30 1979 C 6.7699 5.2484 -8.6599 0
M  V30 1980 C 13.8110 28.3442 -8.6664 0
M  V30 1981 C 14.9873 29.1896 -8.2484 0
M  V30 1982 C 5.5758 19.5843 3.5385 0
M  V30 1983 C 5.6083 14.0006 -8.2544 0
M  V30 1984 C 5.5840 33.2076 -8.2541 0
M  V30 1985 C 14.9798 38.8013 -8.2345 0
M  V30 1986 C 14.9965 33.2076 3.5415 0
M  V30 1987 C 15.0214 19.5578 -8.2504 0
M  V30 1988 C 5.6372 42.9319 -8.3440 0
M  V30 1989 C 5.5962 38.8006 3.5221 0
M  V30 1990 C 14.9415 0.2682 -8.3446 0
M  V30 1991 C 14.9956 9.9922 -8.2541 0
M  V30 1992 C 5.6372 0.2681 3.6313 0
M  V30 1993 C 5.5772 23.6150 -8.2541 0
M  V30 1994 C 15.0004 23.6229 3.5413 0
M  V30 1995 C 14.9854 4.3987 3.5216 0
M  V30 1996 C 14.9412 42.9318 3.6315 0
M  V30 1997 C 5.5800 9.9924 3.5414 0
M  V30 1998 C 14.9878 14.0108 3.5366 0
M  V30 1999 C 5.5869 29.1884 3.5357 0
M  V30 2000 C 5.5978 4.3990 -8.2342 0
M  V30 2001 O 15.0090 30.4165 -8.3688 0
M  V30 2002 O 15.0092 12.7843 3.6567 0
M  V30 2003 O 5.5992 12.7737 -8.3790 0
M  V30 2004 O 5.5539 20.8141 3.6422 0
M  V30 2005 O 5.5519 31.9843 -8.3868 0
M  V30 2006 O 15.0272 22.3959 3.6581 0
M  V30 2007 O 5.5661 30.4153 3.6551 0
M  V30 2008 O 14.9931 40.0305 -8.3356 0
M  V30 2009 O 15.0278 31.9845 3.6737 0
M  V30 2010 O 15.0371 20.7883 -8.3225 0
M  V30 2011 O 5.5831 40.0301 3.6222 0
M  V30 2012 O 5.6099 41.7199 -8.5487 0
M  V30 2013 O 14.9682 41.7198 3.8360 0
M  V30 2014 O 14.9688 1.4803 -8.5493 0
M  V30 2015 O 15.0272 11.2155 -8.3864 0
M  V30 2016 O 5.6098 1.4801 3.8362 0
M  V30 2017 O 5.5592 22.3849 -8.3532 0
M  V30 2018 O 14.9978 3.1691 3.6212 0
M  V30 2019 O 5.5513 11.2155 3.6737 0
M  V30 2020 O 5.5847 3.1696 -8.3354 0
M  V30 2021 C 6.7240 5.3351 -10.1725 0
M  V30 2022 C 13.8568 14.9427 5.4677 0
M  V30 2023 C 13.8620 34.1429 5.4685 0
M  V30 2024 C 6.7243 14.9439 -10.1838 0
M  V30 2025 C 6.7167 34.1429 -10.1816 0
M  V30 2026 C 6.7148 18.6631 5.4707 0
M  V30 2027 C 6.7206 28.2572 5.4664 0
M  V30 2028 C 13.8544 37.8649 -10.1727 0
M  V30 2029 C 6.7236 37.8649 5.4597 0
M  V30 2030 C 13.8716 18.6613 -10.1839 0
M  V30 2031 C 6.8819 44.1693 -10.1501 0
M  V30 2032 C 13.8612 24.5455 5.4710 0
M  V30 2033 C 13.8619 9.0571 -10.1814 0
M  V30 2034 C 6.8819 -0.9693 5.4373 0
M  V30 2035 C 13.6965 -0.9693 -10.1502 0
M  V30 2036 C 13.6965 44.1693 5.4374 0
M  V30 2037 C 6.7156 24.5402 -10.1843 0
M  V30 2038 C 13.8572 28.2573 -10.1799 0
M  V30 2039 C 13.8539 5.3333 5.4581 0
M  V30 2040 C 6.7165 9.0572 5.4685 0
M  V30 2041 C 14.8818 45.0261 5.8879 0
M  V30 2042 C 5.6967 -1.8260 5.8879 0
M  V30 2043 C 15.0628 8.2636 -10.6823 0
M  V30 2044 C 14.8817 -1.8261 -10.6008 0
M  V30 2045 C 5.5197 25.3328 -10.6976 0
M  V30 2046 C 15.0509 6.1179 5.9765 0
M  V30 2047 C 5.5158 8.2636 5.9695 0
M  V30 2048 C 15.0556 27.4700 -10.6930 0
M  V30 2049 C 5.5261 6.1206 -10.6878 0
M  V30 2050 C 15.0553 15.7301 5.9807 0
M  V30 2051 C 5.5195 17.8691 5.9835 0
M  V30 2052 C 5.5236 15.7304 -10.6935 0
M  V30 2053 C 15.0627 34.9364 5.9695 0
M  V30 2054 C 5.5158 34.9363 -10.6823 0
M  V30 2055 C 15.0593 25.3350 5.9837 0
M  V30 2056 C 5.5227 27.4697 5.9803 0
M  V30 2057 C 15.0524 37.0794 -10.6879 0
M  V30 2058 C 5.5259 37.0792 5.9753 0
M  V30 2059 C 15.0630 17.8680 -10.7038 0
M  V30 2060 C 5.6967 45.0260 -10.6007 0
M  V30 2061 C 14.9506 27.1794 -12.1841 0
M  V30 2062 C 14.9505 16.0206 7.4718 0
M  V30 2063 C 14.8659 45.4580 7.3578 0
M  V30 2064 C 5.6279 16.0208 -12.1848 0
M  V30 2065 C 5.6175 17.5615 7.4715 0
M  V30 2066 C 5.5984 35.2663 -12.1660 0
M  V30 2067 C 14.9623 25.6423 7.4710 0
M  V30 2068 C 14.9399 36.8022 -12.1812 0
M  V30 2069 C 5.6281 27.1799 7.4716 0
M  V30 2070 C 5.6389 36.8028 7.4690 0
M  V30 2071 C 5.7125 45.4579 -12.0705 0
M  V30 2072 C 5.7125 -2.2579 7.3577 0
M  V30 2073 C 14.9799 7.9343 -12.1664 0
M  V30 2074 C 14.8660 -2.2579 -12.0706 0
M  V30 2075 C 14.9621 17.5598 -12.1906 0
M  V30 2076 C 5.6174 25.6402 -12.1852 0
M  V30 2077 C 14.9799 35.2663 7.4532 0
M  V30 2078 C 5.6385 6.3983 -12.1809 0
M  V30 2079 C 14.9360 6.3913 7.4704 0
M  V30 2080 C 5.5987 7.9348 7.4540 0
M  V30 2081 O 14.0382 27.7815 -12.8537 0
M  V30 2082 O 6.5542 5.7862 -12.8398 0
M  V30 2083 O 14.0379 15.4184 8.1413 0
M  V30 2084 O 6.5266 18.1532 8.1516 0
M  V30 2085 O 6.5401 15.4189 -12.8546 0
M  V30 2086 O 6.5026 34.6856 -12.8638 0
M  V30 2087 O 14.0511 25.0440 8.1514 0
M  V30 2088 O 6.5404 27.7815 8.1406 0
M  V30 2089 O 14.0246 37.4133 -12.8398 0
M  V30 2090 O 14.0759 34.6858 8.1509 0
M  V30 2091 O 6.5537 37.4130 8.1270 0
M  V30 2092 O 14.0525 18.1530 -12.8695 0
M  V30 2093 O 6.7604 45.2067 -12.7356 0
M  V30 2094 O 13.8181 45.2068 8.0228 0
M  V30 2095 O 6.7603 -2.0067 8.0228 0
M  V30 2096 O 14.0764 8.5138 -12.8636 0
M  V30 2097 O 13.8182 -2.0067 -12.7357 0
M  V30 2098 O 6.5268 25.0471 -12.8655 0
M  V30 2099 O 14.0191 5.7799 8.1261 0
M  V30 2100 O 6.5020 8.5137 8.1507 0
M  V30 2101 O 15.6231 26.2069 -12.6020 0 CHG=-1
M  V30 2102 O 4.9672 7.3627 -12.6125 0 CHG=-1
M  V30 2103 O 15.6231 16.9928 7.8898 0 CHG=-1
M  V30 2104 O 4.9454 16.5782 7.8702 0 CHG=-1
M  V30 2105 O 4.9555 16.9935 -12.6026 0 CHG=-1
M  V30 2106 O 4.9214 36.2582 -12.5370 0 CHG=-1
M  V30 2107 O 4.9554 26.2071 7.8897 0 CHG=-1
M  V30 2108 O 15.6114 35.8371 -12.6124 0 CHG=-1
M  V30 2109 O 4.9670 35.8370 7.8997 0 CHG=-1
M  V30 2110 O 15.8995 46.0945 7.7277 0 CHG=-1
M  V30 2111 O 4.6790 46.0944 -12.4405 0 CHG=-1
M  V30 2112 O 15.6326 16.5761 -12.5901 0 CHG=-1
M  V30 2113 O 4.6789 -2.8944 7.7277 0 CHG=-1
M  V30 2114 O 15.6576 6.9417 -12.5368 0 CHG=-1
M  V30 2115 O 15.8996 -2.8943 -12.4405 0 CHG=-1
M  V30 2116 O 4.9454 26.6225 -12.5849 0 CHG=-1
M  V30 2117 O 15.6079 7.3544 7.9056 0 CHG=-1
M  V30 2118 O 15.6320 26.6227 7.8739 0 CHG=-1
M  V30 2119 O 4.9211 6.9416 7.8240 0 CHG=-1
M  V30 2120 O 15.6570 36.2584 7.8242 0 CHG=-1
M  V30 2121 H 12.5567 30.0057 -8.2586 0
M  V30 2122 H 12.5561 13.1942 3.5471 0
M  V30 2123 H 8.0107 20.4111 3.5357 0
M  V30 2124 H 8.0248 13.1959 -8.2600 0
M  V30 2125 H 8.0275 32.3916 -8.2537 0
M  V30 2126 H 12.5633 22.7965 3.5401 0
M  V30 2127 H 8.0208 30.0058 3.5461 0
M  V30 2128 H 12.5463 42.1024 3.5807 0
M  V30 2129 H 12.5470 39.6106 -8.2821 0
M  V30 2130 H 12.5513 32.3918 3.5409 0
M  V30 2131 H 8.0303 39.6100 3.5694 0
M  V30 2132 H 12.5835 20.4024 -8.2469 0
M  V30 2133 H 8.0320 42.1025 -8.2941 0
M  V30 2134 H 8.0318 1.0976 3.5807 0
M  V30 2135 H 12.5512 10.8083 -8.2539 0
M  V30 2136 H 12.5464 1.0975 -8.2938 0
M  V30 2137 H 8.0119 22.7921 -8.2501 0
M  V30 2138 H 8.0315 3.5895 -8.2821 0
M  V30 2139 H 12.5483 3.5892 3.5680 0
M  V30 2140 H 8.0272 10.8084 3.5410 0
M  V30 2141 H 13.8712 27.3613 -8.1932 0
M  V30 2142 H 13.8709 15.8386 3.4811 0
M  V30 2143 H 6.6993 17.7644 3.4850 0
M  V30 2144 H 6.7087 15.8388 -8.1946 0
M  V30 2145 H 6.7029 35.0293 -8.1919 0
M  V30 2146 H 6.7072 36.9683 3.4746 0
M  V30 2147 H 13.8739 25.4424 3.4848 0
M  V30 2148 H 13.8873 17.7488 -8.2029 0
M  V30 2149 H 6.7056 27.3611 3.4797 0
M  V30 2150 H 13.8696 36.9686 -8.1875 0
M  V30 2151 H 13.8245 44.7492 3.3594 0
M  V30 2152 H 6.7540 44.7492 -8.0722 0
M  V30 2153 H 13.8761 35.0295 3.4790 0
M  V30 2154 H 6.7540 -1.5492 3.3594 0
M  V30 2155 H 13.8759 8.1705 -8.1917 0
M  V30 2156 H 13.8247 -1.5491 -8.0722 0
M  V30 2157 H 6.6984 25.4371 -8.1969 0
M  V30 2158 H 6.7087 6.2315 -8.1873 0
M  V30 2159 H 13.8726 6.2309 3.4733 0
M  V30 2160 H 6.7024 8.1706 3.4788 0
M  V30 2161 H 13.8802 29.2607 -10.6182 0
M  V30 2162 H 6.7022 4.3317 -10.6105 0
M  V30 2163 H 13.8797 13.9395 5.9063 0
M  V30 2164 H 6.6887 19.6655 5.9099 0
M  V30 2165 H 6.7000 13.9406 -10.6213 0
M  V30 2166 H 6.6916 33.1428 -10.6271 0
M  V30 2167 H 13.8853 23.5423 5.9097 0
M  V30 2168 H 6.6979 29.2605 5.9048 0
M  V30 2169 H 13.8763 38.8683 -10.6106 0
M  V30 2170 H 13.8870 33.1428 5.9141 0
M  V30 2171 H 6.7020 38.8682 5.8977 0
M  V30 2172 H 13.8993 19.6677 -10.6156 0
M  V30 2173 H 6.9153 43.2456 -10.7408 0
M  V30 2174 H 13.6631 43.2456 6.0281 0
M  V30 2175 H 6.9153 -0.0456 6.0280 0
M  V30 2176 H 13.8870 10.0572 -10.6269 0
M  V30 2177 H 13.6630 -0.0457 -10.7409 0
M  V30 2178 H 6.6901 23.5377 -10.6232 0
M  V30 2179 H 13.8742 4.3295 5.8953 0
M  V30 2180 H 6.6915 10.0571 5.9141 0
M  V30 2181 H 12.9216 27.8189 -10.5173 0
M  V30 2182 H 12.9251 24.9824 5.8078 0
M  V30 2183 H 7.6594 5.7753 -10.5100 0
M  V30 2184 H 7.6520 18.2269 5.8064 0
M  V30 2185 H 7.6585 15.3823 -10.5221 0
M  V30 2186 H 7.6515 34.5825 -10.5185 0
M  V30 2187 H 12.7633 44.7075 5.6442 0
M  V30 2188 H 7.6565 27.8189 5.8033 0
M  V30 2189 H 12.9191 37.4247 -10.5102 0
M  V30 2190 H 12.9272 34.5825 5.8053 0
M  V30 2191 H 7.6591 37.4247 5.7968 0
M  V30 2192 H 7.8152 44.7075 -10.3570 0
M  V30 2193 H 7.8152 -1.5075 5.6442 0
M  V30 2194 H 12.9272 8.6175 -10.5182 0
M  V30 2195 H 7.6527 24.9766 -10.5204 0
M  V30 2196 H 12.7632 -1.5076 -10.3570 0
M  V30 2197 H 12.9180 5.7737 5.7943 0
M  V30 2198 H 12.9213 15.3813 5.8049 0
M  V30 2199 H 12.9319 18.2310 -10.5204 0
M  V30 2200 H 7.6513 8.6175 5.8054 0
M  V30 2201 H 15.1387 26.5362 -10.1258 0
M  V30 2202 H 5.4438 7.0585 -10.1271 0
M  V30 2203 H 5.4391 16.9395 5.4092 0
M  V30 2204 H 5.4404 16.6640 -10.1259 0
M  V30 2205 H 5.4337 35.8603 -10.0988 0
M  V30 2206 H 15.1433 26.2652 5.4101 0
M  V30 2207 H 5.4397 26.5358 5.4132 0
M  V30 2208 H 15.1348 36.1415 -10.1272 0
M  V30 2209 H 15.1447 35.8605 5.3861 0
M  V30 2210 H 5.4436 36.1414 5.4146 0
M  V30 2211 H 15.1437 16.9378 -10.1302 0
M  V30 2212 H 5.6642 45.9413 -9.9953 0
M  V30 2213 H 14.9143 45.9413 5.2825 0
M  V30 2214 H 5.6642 -2.7413 5.2825 0
M  V30 2215 H 15.1448 7.3396 -10.0988 0
M  V30 2216 H 5.4375 26.2624 -10.1234 0
M  V30 2217 H 14.9143 -2.7414 -9.9954 0
M  V30 2218 H 15.1382 16.6640 5.4135 0
M  V30 2219 H 15.1334 7.0570 5.4180 0
M  V30 2220 H 5.4337 7.3396 5.3860 0
M  V30 2221 H 15.9934 28.0024 -10.5052 0
M  V30 2222 H 4.5873 5.5909 -10.4982 0
M  V30 2223 H 4.5801 18.4004 5.8008 0
M  V30 2224 H 4.5864 15.1974 -10.5047 0
M  V30 2225 H 4.5799 34.3991 -10.4996 0
M  V30 2226 H 4.5848 28.0019 5.7928 0
M  V30 2227 H 15.9966 24.8008 5.7998 0
M  V30 2228 H 15.8217 44.4898 5.7061 0
M  V30 2229 H 15.9913 37.6091 -10.4983 0
M  V30 2230 H 15.9987 34.3992 5.7870 0
M  V30 2231 H 16.0034 18.3982 -10.5238 0
M  V30 2232 H 4.7568 44.4898 -10.4188 0
M  V30 2233 H 4.7568 -1.2898 5.7060 0
M  V30 2234 H 15.9987 8.8009 -10.4997 0
M  V30 2235 H 4.5811 24.8001 -10.5155 0
M  V30 2236 H 15.8216 -1.2898 -10.4189 0
M  V30 2237 H 15.9900 5.5888 5.7869 0
M  V30 2238 H 15.9930 15.1978 5.7928 0
M  V30 2239 H 4.5798 8.8009 5.7869 0
M  V30 2240 H 4.5871 37.6090 5.7858 0
M  V30 2241 N 16.0304 28.4397 -7.7793 0
M  V30 2242 N 16.0302 14.7622 3.0681 0
M  V30 2243 N 4.5519 5.1513 -7.7744 0
M  V30 2244 N 4.5244 18.8303 3.0967 0
M  V30 2245 N 4.5638 14.7358 -7.7807 0
M  V30 2246 N 4.5447 33.9630 -7.7788 0
M  V30 2247 N 16.0465 24.3812 3.0881 0
M  V30 2248 N 4.5419 28.4380 3.0693 0
M  V30 2249 N 16.0247 38.0491 -7.7735 0
M  V30 2250 N 16.0366 33.9627 3.0670 0
M  V30 2251 N 4.5492 38.0483 3.0631 0
M  V30 2252 N 16.0852 18.8067 -7.8279 0
M  V30 2253 N 4.5937 43.6272 -7.7842 0
M  V30 2254 N 15.9849 43.6271 3.0721 0
M  V30 2255 N 4.5937 -0.4272 3.0716 0
M  V30 2256 N 16.0349 9.2370 -7.7791 0
M  V30 2257 N 4.5215 24.3662 -7.8199 0
M  V30 2258 N 16.0336 5.1504 3.0656 0
M  V30 2259 N 15.9853 -0.4271 -7.7857 0
M  V30 2260 N 4.5389 9.2367 3.0682 0
M  V30 2261 C 17.2151 29.0764 -7.2840 0
M  V30 2262 C 3.3652 4.5201 -7.2817 0
M  V30 2263 C 3.3535 19.4717 2.5796 0
M  V30 2264 C 3.3879 14.0788 -7.2927 0
M  V30 2265 C 3.3614 33.3219 -7.2831 0
M  V30 2266 C 17.1442 42.9427 2.5544 0
M  V30 2267 C 3.3582 29.0763 2.5729 0
M  V30 2268 C 17.2093 38.6818 -7.2802 0
M  V30 2269 C 3.3641 38.6802 2.5696 0
M  V30 2270 C 17.2432 19.4599 -7.2935 0
M  V30 2271 C 3.4345 42.9427 -7.2664 0
M  V30 2272 C 17.2200 33.3212 2.5714 0
M  V30 2273 C 3.4344 0.2573 2.5539 0
M  V30 2274 C 17.2170 9.8786 -7.2829 0
M  V30 2275 C 3.3524 23.7244 -7.2974 0
M  V30 2276 C 17.2183 4.5176 2.5708 0
M  V30 2277 C 17.1446 0.2574 -7.2678 0
M  V30 2278 C 17.2141 14.1267 2.5729 0
M  V30 2279 C 3.3520 9.8762 2.5731 0
M  V30 2280 C 17.2334 23.7474 2.5949 0
M  V30 2281 C 18.3913 28.1671 -7.5724 0
M  V30 2282 C 2.1783 5.4248 -7.5671 0
M  V30 2283 C 2.1688 18.5758 2.8776 0
M  V30 2284 C 2.2076 14.9839 -7.6137 0
M  V30 2285 C 2.1725 34.2178 -7.5871 0
M  V30 2286 C 18.4272 24.6264 2.9357 0
M  V30 2287 C 18.3239 43.8458 2.8450 0
M  V30 2288 C 2.1702 28.1794 2.8646 0
M  V30 2289 C 18.3902 37.7770 -7.5693 0
M  V30 2290 C 18.4063 34.2169 2.8717 0
M  V30 2291 C 2.1783 37.7813 2.8590 0
M  V30 2292 C 18.4349 18.5713 -7.5822 0
M  V30 2293 C 2.2548 43.8458 -7.5573 0
M  V30 2294 C 2.2547 -0.6460 2.8445 0
M  V30 2295 C 18.4036 8.9821 -7.5829 0
M  V30 2296 C 2.1750 24.6287 -7.5900 0
M  V30 2297 C 18.4064 5.4183 2.8566 0
M  V30 2298 C 18.3916 15.0313 2.8706 0
M  V30 2299 C 18.3241 -0.6459 -7.5582 0
M  V30 2300 C 2.1582 8.9856 2.8727 0
M  V30 2301 O 18.3982 26.9657 -7.3142 0
M  V30 2302 O 2.1576 6.6195 -7.2931 0
M  V30 2303 O 2.1454 17.3715 2.6361 0
M  V30 2304 O 2.1514 26.9771 2.6138 0
M  V30 2305 O 2.2188 16.1887 -7.3690 0
M  V30 2306 O 2.1426 35.4218 -7.3562 0
M  V30 2307 O 18.4464 25.8421 2.7825 0
M  V30 2308 O 18.4125 36.5814 -7.2891 0
M  V30 2309 O 18.4333 35.4254 2.6371 0
M  V30 2310 O 2.1517 36.5829 2.5848 0
M  V30 2311 O 18.4617 17.3669 -7.3399 0
M  V30 2312 O 2.2311 45.0443 -7.2755 0
M  V30 2313 O 18.3477 45.0442 2.5630 0
M  V30 2314 O 2.2311 -1.8443 2.5630 0
M  V30 2315 O 18.4288 7.7755 -7.3475 0
M  V30 2316 O 2.1616 25.8333 -7.3478 0
M  V30 2317 O 18.4256 6.6154 2.5864 0
M  V30 2318 O 18.4131 16.2341 2.6175 0
M  V30 2319 O 18.3476 -1.8444 -7.2766 0
M  V30 2320 O 2.1321 7.7742 2.6470 0
M  V30 2321 C 17.1637 29.3717 -5.7928 0
M  V30 2322 C 17.1646 13.8319 1.0818 0
M  V30 2323 C 3.4269 4.2197 -5.7907 0
M  V30 2324 C 3.4158 19.7571 1.0867 0
M  V30 2325 C 3.4205 13.8145 -5.7959 0
M  V30 2326 C 3.4117 33.0277 -5.7924 0
M  V30 2327 C 17.1779 23.4585 1.0985 0
M  V30 2328 C 3.4129 29.3704 1.0813 0
M  V30 2329 C 17.1509 38.9806 -5.7898 0
M  V30 2330 C 17.1671 33.0266 1.0793 0
M  V30 2331 C 3.4259 38.9796 1.0789 0
M  V30 2332 C 17.1645 19.7491 -5.8020 0
M  V30 2333 C 3.4880 42.6887 -5.7588 0
M  V30 2334 C 3.4878 0.5112 1.0463 0
M  V30 2335 C 17.1666 10.1730 -5.7916 0
M  V30 2336 C 3.4177 23.4430 -5.8045 0
M  V30 2337 C 17.1537 4.2197 1.0796 0
M  V30 2338 C 17.0909 42.6889 1.0468 0
M  V30 2339 C 17.0916 0.5112 -5.7603 0
M  V30 2340 C 3.4105 10.1720 1.0807 0
M  V30 2341 C 15.8352 29.1441 -5.1520 0
M  V30 2342 C 4.7592 4.4176 -5.1400 0
M  V30 2343 C 4.7475 19.5298 0.4524 0
M  V30 2344 C 4.7448 14.0496 -5.1508 0
M  V30 2345 C 4.7410 33.2569 -5.1512 0
M  V30 2346 C 15.8429 23.6742 0.4552 0
M  V30 2347 C 15.8377 33.2572 0.4392 0
M  V30 2348 C 4.7425 29.1432 0.4412 0
M  V30 2349 C 15.8191 38.7826 -5.1394 0
M  V30 2350 C 4.7586 38.7819 0.4281 0
M  V30 2351 C 15.8299 19.5231 -5.1725 0
M  V30 2352 C 4.8157 43.0044 -5.1317 0
M  V30 2353 C 4.8154 0.1954 0.4192 0
M  V30 2354 C 15.8374 9.9430 -5.1515 0
M  V30 2355 C 4.7493 23.6720 -5.1703 0
M  V30 2356 C 15.8205 4.4183 0.4300 0
M  V30 2357 C 15.7645 0.1941 -5.1332 0
M  V30 2358 C 15.8356 14.0574 0.4402 0
M  V30 2359 C 4.7400 9.9423 0.4409 0
M  V30 2360 C 15.7634 43.0050 0.4196 0
M  V30 2361 C 15.6595 28.0580 -4.3384 0
M  V30 2362 C 4.9496 5.5124 -4.3391 0
M  V30 2363 C 4.9240 18.4506 -0.3702 0
M  V30 2364 C 4.9179 15.1377 -4.3379 0
M  V30 2365 C 4.9157 34.3364 -4.3265 0
M  V30 2366 C 15.6612 24.7501 -0.3719 0
M  V30 2367 C 4.9184 28.0577 -0.3734 0
M  V30 2368 C 15.6288 37.6876 -4.3389 0
M  V30 2369 C 15.6629 34.3365 -0.3857 0
M  V30 2370 C 4.9493 37.6875 -0.3730 0
M  V30 2371 C 15.6528 18.4461 -4.3470 0
M  V30 2372 C 5.0691 44.2157 -4.4902 0
M  V30 2373 C 5.0685 -1.0160 -0.2223 0
M  V30 2374 C 15.6625 8.8634 -4.3270 0
M  V30 2375 C 4.9248 24.7504 -4.3460 0
M  V30 2376 C 15.6298 5.5125 -0.3719 0
M  V30 2377 C 15.5108 44.2167 -0.2218 0
M  V30 2378 C 15.6595 15.1423 -0.3752 0
M  V30 2379 C 15.5132 -1.0181 -4.4921 0
M  V30 2380 C 4.9153 8.8636 -0.3855 0
M  V30 2381 C 14.7647 30.0046 -5.3286 0
M  V30 2382 C 5.8103 3.5201 -5.2833 0
M  V30 2383 C 5.8149 20.3944 0.6286 0
M  V30 2384 C 5.8173 13.1925 -5.3269 0
M  V30 2385 C 5.8125 32.3996 -5.3373 0
M  V30 2386 C 14.7750 22.8081 0.6313 0
M  V30 2387 C 14.7680 39.6800 -5.2831 0
M  V30 2388 C 14.7662 32.3996 0.6250 0
M  V30 2389 C 5.8098 39.6798 0.5712 0
M  V30 2390 C 14.7647 20.3910 -5.3442 0
M  V30 2391 C 5.8507 42.0986 -5.2368 0
M  V30 2392 C 5.8506 1.1010 0.5242 0
M  V30 2393 C 14.7661 10.8007 -5.3372 0
M  V30 2394 C 5.8164 22.8066 -5.3442 0
M  V30 2395 C 14.7694 3.5205 0.5723 0
M  V30 2396 C 14.7281 42.0997 0.5245 0
M  V30 2397 C 14.7287 1.0988 -5.2375 0
M  V30 2398 C 14.7653 13.1964 0.6163 0
M  V30 2399 C 5.8119 10.7999 0.6252 0
M  V30 2400 C 5.8129 30.0041 0.6169 0
M  V30 2401 C 14.5084 27.9816 -3.5931 0
M  V30 2402 C 14.5087 15.2174 -1.1216 0
M  V30 2403 C 6.0963 5.5732 -3.5842 0
M  V30 2404 C 6.0743 18.3824 -1.1179 0
M  V30 2405 C 6.0697 15.2176 -3.5934 0
M  V30 2406 C 6.0708 34.4135 -3.5847 0
M  V30 2407 C 14.5080 24.8171 -1.1174 0
M  V30 2408 C 6.0695 27.9817 -1.1192 0
M  V30 2409 C 14.4821 37.6268 -3.5840 0
M  V30 2410 C 14.5079 34.4135 -1.1277 0
M  V30 2411 C 6.0958 37.6269 -1.1283 0
M  V30 2412 C 14.5046 18.3822 -3.5954 0
M  V30 2413 C 6.3181 44.4848 -3.9247 0
M  V30 2414 C 14.2621 44.4860 -0.7878 0
M  V30 2415 C 6.3174 -1.2853 -0.7880 0
M  V30 2416 C 14.5075 8.7863 -3.5853 0
M  V30 2417 C 6.0740 24.8179 -3.5964 0
M  V30 2418 C 14.4832 5.5729 -1.1276 0
M  V30 2419 C 14.2649 -1.2882 -3.9257 0
M  V30 2420 C 6.0705 8.7865 -1.1278 0
M  V30 2421 C 13.5606 29.7727 -4.6544 0
M  V30 2422 C 13.5616 32.6303 -0.0476 0
M  V30 2423 C 7.0101 3.7166 -4.5903 0
M  V30 2424 C 7.0194 20.1664 -0.0454 0
M  V30 2425 C 7.0208 13.4262 -4.6530 0
M  V30 2426 C 7.0171 32.6301 -4.6649 0
M  V30 2427 C 13.5678 23.0344 -0.0415 0
M  V30 2428 C 7.0171 29.7726 -0.0578 0
M  V30 2429 C 13.5683 39.4835 -4.5902 0
M  V30 2430 C 7.0094 39.4833 -0.1222 0
M  V30 2431 C 13.5604 20.1656 -4.6683 0
M  V30 2432 C 7.0350 42.3420 -4.5405 0
M  V30 2433 C 7.0348 0.8574 -0.1721 0
M  V30 2434 C 13.5441 42.3433 -0.1719 0
M  V30 2435 C 13.5617 10.5705 -4.6644 0
M  V30 2436 C 7.0200 23.0340 -4.6685 0
M  V30 2437 C 13.5696 3.7168 -0.1213 0
M  V30 2438 C 13.5611 13.4274 -0.0586 0
M  V30 2439 C 13.5451 0.8545 -4.5410 0
M  V30 2440 C 7.0168 10.5696 -0.0477 0
M  V30 2441 C 13.4024 28.7635 -3.7782 0
M  V30 2442 C 7.1833 4.7544 -3.7440 0
M  V30 2443 C 7.1797 19.1634 -0.9279 0
M  V30 2444 C 7.1760 14.4367 -3.7772 0
M  V30 2445 C 7.1754 33.6319 -3.7790 0
M  V30 2446 C 13.4036 24.0358 -0.9252 0
M  V30 2447 C 7.1755 28.7635 -0.9342 0
M  V30 2448 C 13.3951 38.4457 -3.7438 0
M  V30 2449 C 13.4031 33.6319 -0.9335 0
M  V30 2450 C 7.1829 38.4457 -0.9686 0
M  V30 2451 C 13.3996 19.1634 -3.7850 0
M  V30 2452 C 7.2875 43.5147 -3.8916 0
M  V30 2453 C 13.2924 43.5163 -0.8210 0
M  V30 2454 C 7.2870 -0.3153 -0.8211 0
M  V30 2455 C 13.4030 9.5683 -3.7792 0
M  V30 2456 C 7.1795 24.0369 -3.7857 0
M  V30 2457 C 13.3961 4.7543 -0.9679 0
M  V30 2458 C 13.4028 14.4357 -0.9361 0
M  V30 2459 C 7.1753 9.5681 -0.9335 0
M  V30 2460 C 13.2945 -0.3192 -3.8922 0
M  V30 2461 H 15.9415 27.4248 -7.6365 0
M  V30 2462 H 15.8824 44.6044 2.8256 0
M  V30 2463 H 4.6345 6.1704 -7.6506 0
M  V30 2464 H 4.5919 17.8084 2.9983 0
M  V30 2465 H 4.6324 15.7528 -7.6411 0
M  V30 2466 H 4.6415 34.9725 -7.6231 0
M  V30 2467 H 4.6321 37.0294 2.9383 0
M  V30 2468 H 15.9538 25.3954 2.9511 0
M  V30 2469 H 4.6318 27.4235 2.9251 0
M  V30 2470 H 15.9432 37.0298 -7.6504 0
M  V30 2471 H 15.9387 34.9719 2.9106 0
M  V30 2472 H 16.0425 17.7825 -7.7712 0
M  V30 2473 H 4.6963 44.6044 -7.5377 0
M  V30 2474 H 4.6962 -1.4044 2.8251 0
M  V30 2475 H 15.9378 8.2276 -7.6232 0
M  V30 2476 H 4.5821 25.3893 -7.7372 0
M  V30 2477 H 15.9513 6.1692 2.9399 0
M  V30 2478 H 15.9409 15.7768 2.9256 0
M  V30 2479 H 4.6394 8.2284 2.9107 0
M  V30 2480 H 15.8826 -1.4042 -7.5388 0
M  V30 2481 H 17.3369 30.0152 -7.8306 0
M  V30 2482 H 17.3325 13.1857 3.1168 0
M  V30 2483 H 3.2441 3.5797 -7.8269 0
M  V30 2484 H 3.2368 20.4169 3.1150 0
M  V30 2485 H 3.2817 13.1325 -7.8304 0
M  V30 2486 H 3.2498 32.3796 -7.8260 0
M  V30 2487 H 17.3375 22.7982 3.1254 0
M  V30 2488 H 3.2418 30.0170 3.1171 0
M  V30 2489 H 17.3326 39.6209 -7.8261 0
M  V30 2490 H 17.3336 32.3791 3.1142 0
M  V30 2491 H 3.2426 39.6210 3.1149 0
M  V30 2492 H 17.3606 20.4051 -7.8288 0
M  V30 2493 H 3.3196 41.9973 -7.8045 0
M  V30 2494 H 17.2592 41.9973 3.0924 0
M  V30 2495 H 3.3195 1.2027 3.0919 0
M  V30 2496 H 17.3314 10.8194 -7.8268 0
M  V30 2497 H 3.2301 22.7793 -7.8331 0
M  V30 2498 H 17.3419 3.5780 3.1165 0
M  V30 2499 H 3.2442 10.8195 3.1156 0
M  V30 2500 H 17.2600 1.2029 -7.8059 0
M  V30 2501 H 17.4136 30.4186 -5.6475 0
M  V30 2502 H 3.1618 3.1761 -5.6507 0
M  V30 2503 H 3.1664 20.8036 0.9332 0
M  V30 2504 H 3.1652 12.7725 -5.6300 0
M  V30 2505 H 3.1637 31.9797 -5.6459 0
M  V30 2506 H 17.4265 22.4106 0.9506 0
M  V30 2507 H 3.1638 30.4175 0.9355 0
M  V30 2508 H 17.4164 40.0241 -5.6499 0
M  V30 2509 H 3.1613 40.0234 0.9385 0
M  V30 2510 H 17.3114 41.6322 0.8852 0
M  V30 2511 H 17.4112 20.7969 -5.6495 0
M  V30 2512 H 3.2671 41.6321 -5.5974 0
M  V30 2513 H 3.2671 1.5679 0.8848 0
M  V30 2514 H 17.4148 11.2205 -5.6461 0
M  V30 2515 H 3.1684 22.3970 -5.6471 0
M  V30 2516 H 17.4180 3.1761 0.9383 0
M  V30 2517 H 3.1633 11.2194 0.9342 0
M  V30 2518 H 17.4145 12.7846 0.9366 0
M  V30 2519 H 17.4145 31.9788 0.9333 0
M  V30 2520 H 17.3114 1.5680 -5.5985 0
M  V30 2521 H 17.9322 28.8225 -5.2331 0
M  V30 2522 H 2.6655 4.7745 -5.2267 0
M  V30 2523 H 2.6502 19.2054 0.5260 0
M  V30 2524 H 2.6495 14.3792 -5.2547 0
M  V30 2525 H 2.6428 33.5769 -5.2339 0
M  V30 2526 H 17.9427 24.0100 0.5386 0
M  V30 2527 H 2.6453 28.8215 0.5205 0
M  V30 2528 H 17.8845 43.2138 0.5009 0
M  V30 2529 H 17.9129 38.4256 -5.2268 0
M  V30 2530 H 17.9358 33.5760 0.5210 0
M  V30 2531 H 2.6648 38.4251 0.5146 0
M  V30 2532 H 17.9276 19.2023 -5.2327 0
M  V30 2533 H 2.6946 43.2138 -5.2129 0
M  V30 2534 H 2.6943 -0.0137 0.5003 0
M  V30 2535 H 17.9356 9.6237 -5.2335 0
M  V30 2536 H 2.6526 23.9958 -5.2441 0
M  V30 2537 H 17.9145 4.7748 0.5149 0
M  V30 2538 H 17.9331 14.3810 0.5229 0
M  V30 2539 H 2.6421 9.6230 0.5215 0
M  V30 2540 H 17.8855 -0.0134 -5.2146 0
M  V30 2541 H 16.2983 -1.7577 -4.4125 0
M  V30 2542 H 16.4138 15.9059 -0.5019 0
M  V30 2543 H 4.2110 6.2975 -4.2369 0
M  V30 2544 H 4.1669 17.6925 -0.5081 0
M  V30 2545 H 4.1628 15.9012 -4.2134 0
M  V30 2546 H 4.2108 36.9024 -0.4756 0
M  V30 2547 H 4.1547 35.0904 -4.1899 0
M  V30 2548 H 16.4151 25.5108 -0.5125 0
M  V30 2549 H 4.1639 27.2944 -0.5008 0
M  V30 2550 H 16.3674 36.9025 -4.2368 0
M  V30 2551 H 16.4240 35.0903 -0.5228 0
M  V30 2552 H 16.2954 44.9568 -0.3019 0
M  V30 2553 H 16.4097 17.6880 -4.2080 0
M  V30 2554 H 4.2848 44.9563 -4.4097 0
M  V30 2555 H 4.2841 -1.7565 -0.3027 0
M  V30 2556 H 16.4237 8.1096 -4.1902 0
M  V30 2557 H 4.1670 25.5079 -4.2076 0
M  V30 2558 H 16.4142 27.2947 -4.2118 0
M  V30 2559 H 16.3683 6.2976 -0.4751 0
M  V30 2560 H 4.1545 8.1096 -0.5228 0
M  V30 2561 H 14.8866 2.0233 -5.7982 0
M  V30 2562 H 14.9044 30.8958 -5.9383 0
M  V30 2563 H 14.9046 12.3052 1.2263 0
M  V30 2564 H 5.6650 2.6407 -5.9049 0
M  V30 2565 H 5.6726 21.2896 1.2324 0
M  V30 2566 H 5.6788 12.3020 -5.9380 0
M  V30 2567 H 5.6744 31.5070 -5.9474 0
M  V30 2568 H 14.9151 21.9139 1.2373 0
M  V30 2569 H 5.6735 30.8957 1.2261 0
M  V30 2570 H 14.9134 40.5593 -5.9048 0
M  V30 2571 H 14.9045 31.5068 1.2347 0
M  V30 2572 H 5.6647 40.5593 1.1925 0
M  V30 2573 H 14.9082 21.2882 -5.9446 0
M  V30 2574 H 5.6919 41.1746 -5.7976 0
M  V30 2575 H 14.8865 41.1754 1.0852 0
M  V30 2576 H 5.6919 2.0251 1.0850 0
M  V30 2577 H 14.9044 11.6933 -5.9472 0
M  V30 2578 H 5.6741 21.9107 -5.9469 0
M  V30 2579 H 14.9144 2.6405 1.1931 0
M  V30 2580 H 5.6742 11.6929 1.2349 0
M  V30 2581 H 14.0688 -2.2196 -3.4182 0
M  V30 2582 H 14.4924 15.9465 -1.8999 0
M  V30 2583 H 6.1228 6.3156 -2.8158 0
M  V30 2584 H 6.0909 17.6612 -1.9029 0
M  V30 2585 H 14.0650 45.4171 -1.2952 0
M  V30 2586 H 6.0842 15.9483 -2.8166 0
M  V30 2587 H 6.1011 35.1473 -2.8104 0
M  V30 2588 H 14.4883 25.5382 -1.9025 0
M  V30 2589 H 6.0850 27.2524 -1.8973 0
M  V30 2590 H 14.4557 36.8844 -2.8156 0
M  V30 2591 H 14.4775 35.1471 -1.9022 0
M  V30 2592 H 6.1224 36.8846 -1.8968 0
M  V30 2593 H 14.4883 17.6622 -2.8092 0
M  V30 2594 H 6.5158 45.4159 -3.4175 0
M  V30 2595 H 6.5149 -2.2164 -1.2953 0
M  V30 2596 H 14.4770 8.0525 -2.8110 0
M  V30 2597 H 6.0898 25.5385 -2.8108 0
M  V30 2598 H 14.4930 27.2522 -2.8152 0
M  V30 2599 H 14.4568 6.3148 -1.8966 0
M  V30 2600 H 6.1010 8.0528 -1.9021 0
M  V30 2601 H 12.7759 1.5816 -4.3729 0
M  V30 2602 H 12.7269 12.7678 -0.1173 0
M  V30 2603 H 7.8278 3.0315 -4.5335 0
M  V30 2604 H 7.8502 20.8297 -0.1046 0
M  V30 2605 H 7.8557 12.7681 -4.5939 0
M  V30 2606 H 7.8506 31.9689 -4.6132 0
M  V30 2607 H 12.7361 22.3720 -0.0974 0
M  V30 2608 H 12.7753 41.6159 -0.3399 0
M  V30 2609 H 7.8512 30.4322 -0.1173 0
M  V30 2610 H 12.7506 40.1685 -4.5335 0
M  V30 2611 H 12.7281 31.9690 -0.0994 0
M  V30 2612 H 7.8272 40.1685 -0.1791 0
M  V30 2613 H 12.7309 20.8304 -4.6073 0
M  V30 2614 H 7.8036 41.6142 -4.3725 0
M  V30 2615 H 7.8035 1.5850 -0.3401 0
M  V30 2616 H 12.7287 11.2323 -4.6119 0
M  V30 2617 H 7.8503 22.3701 -4.6077 0
M  V30 2618 H 12.7264 30.4322 -4.5951 0
M  V30 2619 H 12.7520 3.0316 -0.1786 0
M  V30 2620 H 7.8504 11.2310 -0.0994 0
M  V30 2621 H 12.4722 28.6731 -3.2231 0
M  V30 2622 H 12.4725 14.5259 -1.4912 0
M  V30 2623 H 8.1088 19.0832 -1.4866 0
M  V30 2624 H 8.1101 4.8548 -3.1851 0
M  V30 2625 H 8.1067 14.5285 -3.2225 0
M  V30 2626 H 8.1067 33.7126 -3.2244 0
M  V30 2627 H 12.4730 24.1150 -1.4820 0
M  V30 2628 H 12.3633 43.5972 -1.3780 0
M  V30 2629 H 8.1057 28.6733 -1.4894 0
M  V30 2630 H 12.4683 38.3452 -3.1850 0
M  V30 2631 H 12.4719 33.7126 -1.4883 0
M  V30 2632 H 12.4710 19.0846 -3.2252 0
M  V30 2633 H 8.2169 43.5954 -3.3350 0
M  V30 2634 H 8.2162 -0.3961 -1.3779 0
M  V30 2635 H 12.4717 9.4876 -3.2245 0
M  V30 2636 H 8.1081 24.1166 -3.2260 0
M  V30 2637 H 12.4694 4.8544 -1.5271 0
M  V30 2638 H 12.3658 -0.4009 -3.3348 0
M  V30 2639 H 8.1066 9.4874 -1.4883 0
M  V30 2640 H 8.1097 38.3454 -1.5276 0
M  V30 2641 N 19.4455 28.8294 -8.1335 0
M  V30 2642 N 19.4412 14.3586 3.4432 0
M  V30 2643 N 19.3562 0.0043 -8.1728 0
M  V30 2644 N 1.1330 19.2602 3.4456 0
M  V30 2645 N 1.1317 4.7517 -8.1414 0
M  V30 2646 N 1.1553 14.3281 -8.1682 0
M  V30 2647 N 1.1340 33.5201 -8.1399 0
M  V30 2648 N 19.5062 23.9070 3.4246 0
M  V30 2649 N 1.1194 28.8595 3.4199 0
M  V30 2650 N 19.4359 38.4454 -8.1491 0
M  V30 2651 N 19.4516 33.5277 3.4210 0
M  V30 2652 N 1.1337 38.4533 3.4293 0
M  V30 2653 N 19.4634 19.2615 -8.1493 0
M  V30 2654 N 1.2227 43.1958 -8.1724 0
M  V30 2655 N 19.3558 43.1957 3.4601 0
M  V30 2656 N 1.2226 0.0041 3.4594 0
M  V30 2657 N 19.4461 9.6698 -8.1386 0
M  V30 2658 N 1.1309 23.9566 -8.1587 0
M  V30 2659 N 19.4549 4.7468 3.4228 0
M  V30 2660 N 1.1161 9.7019 3.4186 0
M  V30 2661 C 20.6945 28.1534 -8.4192 0
M  V30 2662 C 20.5966 -0.6615 -8.4506 0
M  V30 2663 C -0.1394 18.6382 3.7267 0
M  V30 2664 C -0.1364 5.3857 -8.4205 0
M  V30 2665 C -0.0709 14.9855 -8.4651 0
M  V30 2666 C -0.1649 34.1432 -8.4407 0
M  V30 2667 C 20.7571 24.6280 3.6945 0
M  V30 2668 C 20.5963 43.8614 3.7379 0
M  V30 2669 C -0.1414 28.2049 3.7200 0
M  V30 2670 C 20.7048 37.7971 -8.4268 0
M  V30 2671 C 20.7238 34.1448 3.7177 0
M  V30 2672 C -0.2149 37.8624 3.7159 0
M  V30 2673 C 20.7300 18.6360 -8.4413 0
M  V30 2674 C -0.0176 43.8615 -8.4506 0
M  V30 2675 C -0.0176 -0.6615 3.7378 0
M  V30 2676 C 20.7215 9.0440 -8.4462 0
M  V30 2677 C -0.1436 24.6052 -8.4568 0
M  V30 2678 C 20.7074 15.0000 3.7483 0
M  V30 2679 C 20.7203 5.4051 3.7168 0
M  V30 2680 C -0.1623 9.0404 3.7326 0
M  V30 2681 C 21.7789 29.0619 -8.0808 0
M  V30 2682 C 21.6884 0.2941 -8.2308 0
M  V30 2683 C -1.1747 19.6063 3.4249 0
M  V30 2684 C -1.1864 4.4177 -8.0928 0
M  V30 2685 C -1.1389 14.1025 -8.1352 0
M  V30 2686 C -1.1926 33.1370 -8.1895 0
M  V30 2687 C 21.8531 23.5972 3.4005 0
M  V30 2688 C 21.6880 42.9057 3.5178 0
M  V30 2689 C -1.2357 29.1254 3.4140 0
M  V30 2690 C 21.7587 38.7454 -8.0955 0
M  V30 2691 C 21.7838 33.1831 3.4268 0
M  V30 2692 C -1.2059 38.7849 3.3858 0
M  V30 2693 C 21.7654 19.6035 -8.1433 0
M  V30 2694 C -1.1095 42.9057 -8.2306 0
M  V30 2695 C -1.1096 0.2943 3.5178 0
M  V30 2696 C 21.7744 10.0048 -8.1481 0
M  V30 2697 C -1.1985 23.6789 -8.1373 0
M  V30 2698 C 21.7646 14.0692 3.4390 0
M  V30 2699 C 21.7834 4.4645 3.3931 0
M  V30 2700 C -1.2918 9.9491 3.3602 0
M  V30 2701 O 22.6215 29.8560 -7.8488 0
M  V30 2702 O 22.5487 1.0726 -8.0515 0
M  V30 2703 O -1.9570 20.4785 3.2303 0
M  V30 2704 O -1.9379 3.5548 -7.8483 0
M  V30 2705 O -2.0017 13.3162 -7.9491 0
M  V30 2706 O -1.9765 32.2806 -8.0472 0
M  V30 2707 O 22.6992 22.7817 3.1975 0
M  V30 2708 O -2.0731 29.9323 3.2335 0
M  V30 2709 O 22.5269 39.5765 -7.8590 0
M  V30 2710 O 22.5948 32.3508 3.2455 0
M  V30 2711 O -1.9974 39.6554 3.1256 0
M  V30 2712 O 22.5294 20.4894 -7.9289 0
M  V30 2713 O -1.9695 42.1272 -8.0510 0
M  V30 2714 O 22.5481 42.1271 3.3380 0
M  V30 2715 O -1.9696 1.0728 3.3383 0
M  V30 2716 O 22.5859 10.8418 -7.9681 0
M  V30 2717 O -2.0230 22.8458 -7.9447 0
M  V30 2718 O 22.5624 13.2072 3.2564 0
M  V30 2719 O 22.5657 3.6208 3.1643 0
M  V30 2720 O -2.0862 10.7520 3.1506 0
M  V30 2721 C 20.7405 27.8055 -9.9145 0
M  V30 2722 C 20.7435 15.3802 5.2278 0
M  V30 2723 C 20.5795 -1.2237 -9.8827 0
M  V30 2724 C -0.1728 18.2327 5.2122 0
M  V30 2725 C -0.1812 5.7796 -9.9099 0
M  V30 2726 C -0.1514 15.3789 -9.9429 0
M  V30 2727 C -0.1635 34.5560 -9.9162 0
M  V30 2728 C 20.8265 24.8881 5.2308 0
M  V30 2729 C -0.1655 27.8198 5.2074 0
M  V30 2730 C 20.7521 37.4172 -9.9107 0
M  V30 2731 C 20.7486 34.5633 5.1937 0
M  V30 2732 C -0.2017 37.4446 5.2019 0
M  V30 2733 C 20.7580 18.2351 -9.9212 0
M  V30 2734 C -0.0008 44.4237 -9.8826 0
M  V30 2735 C 20.5794 44.4236 5.1699 0
M  V30 2736 C -0.0009 -1.2237 5.1698 0
M  V30 2737 C 20.7450 8.6352 -9.9126 0
M  V30 2738 C -0.1632 24.9726 -9.9447 0
M  V30 2739 C 20.7543 5.7853 5.1969 0
M  V30 2740 C -0.1901 8.6630 5.1957 0
M  V30 2741 C 21.9963 27.0078 -10.2706 0
M  V30 2742 C 21.7683 -2.1444 -10.1635 0
M  V30 2743 C -1.4229 17.4245 5.5547 0
M  V30 2744 C -1.4328 6.5817 -10.2623 0
M  V30 2745 C -1.4055 16.1884 -10.2790 0
M  V30 2746 C -1.4149 35.3709 -10.2657 0
M  V30 2747 C 22.0370 25.7608 5.5578 0
M  V30 2748 C -1.4181 27.0136 5.5590 0
M  V30 2749 C 22.0080 36.6169 -10.2636 0
M  V30 2750 C 21.9975 35.3712 5.5492 0
M  V30 2751 C -1.4383 36.6192 5.5447 0
M  V30 2752 C 22.0058 17.4241 -10.2684 0
M  V30 2753 C -1.1897 45.3443 -10.1634 0
M  V30 2754 C -1.1897 -2.1443 5.4507 0
M  V30 2755 C 21.9954 7.8279 -10.2625 0
M  V30 2756 C -1.4170 25.7802 -10.2801 0
M  V30 2757 C 22.0086 6.5884 5.5546 0
M  V30 2758 C 22.0016 16.1827 5.5658 0
M  V30 2759 C -1.4266 7.8239 5.5616 0
M  V30 2760 C 21.7682 45.3443 5.4507 0
M  V30 2761 C 22.0698 26.5397 -11.7071 0
M  V30 2762 C 21.7558 -2.6702 -11.5977 0
M  V30 2763 C -1.4922 16.9482 6.9893 0
M  V30 2764 C -1.4970 7.0568 -11.6994 0
M  V30 2765 C -1.4899 16.6605 -11.7123 0
M  V30 2766 C -1.4804 35.8443 -11.7015 0
M  V30 2767 C 22.0866 26.2488 6.9909 0
M  V30 2768 C -1.4912 26.5408 6.9942 0
M  V30 2769 C 22.0754 36.1422 -11.7005 0
M  V30 2770 C 22.0592 35.8434 6.9862 0
M  V30 2771 C -1.4987 36.1417 6.9863 0
M  V30 2772 C 22.0714 16.9479 -11.7032 0
M  V30 2773 C -1.1772 45.8701 -11.5977 0
M  V30 2774 C -1.1772 -2.6701 6.8849 0
M  V30 2775 C 22.0590 7.3559 -11.6993 0
M  V30 2776 C -1.4929 26.2549 -11.7131 0
M  V30 2777 C 22.0744 7.0603 6.9919 0
M  V30 2778 C 22.0738 16.6594 6.9991 0
M  V30 2779 C 21.7557 45.8701 6.8849 0
M  V30 2780 C -1.4839 7.3517 6.9935 0
M  V30 2781 C 23.1607 25.4842 -11.8945 0
M  V30 2782 C 23.0082 -3.4889 -11.8550 0
M  V30 2783 C -2.5824 15.8938 7.1782 0
M  V30 2784 C -2.5844 8.1156 -11.8954 0
M  V30 2785 C -2.5819 17.7151 -11.8944 0
M  V30 2786 C -2.5771 36.8892 -11.8956 0
M  V30 2787 C 23.1673 27.3104 7.1811 0
M  V30 2788 C -2.5818 25.4846 7.1809 0
M  V30 2789 C 23.1634 35.0841 -11.8958 0
M  V30 2790 C 23.1553 36.8886 7.1826 0
M  V30 2791 C -2.5853 35.0845 7.1829 0
M  V30 2792 C 23.1611 15.8931 -11.8919 0
M  V30 2793 C -2.4296 46.6889 -11.8550 0
M  V30 2794 C -2.4296 -3.4889 7.1421 0
M  V30 2795 C 23.1551 6.3109 -11.8953 0
M  V30 2796 C -2.5838 27.3082 -11.8950 0
M  V30 2797 C 23.1629 8.1179 7.1855 0
M  V30 2798 C 23.1627 17.7156 7.1821 0
M  V30 2799 C 23.0081 46.6889 7.1422 0
M  V30 2800 C -2.5775 6.3096 7.1842 0
M  V30 2801 N 22.8665 24.7442 -13.1427 0 CHG=1
M  V30 2802 N 22.8668 18.4560 8.4294 0 CHG=1
M  V30 2803 N 22.9232 -4.0991 -13.2037 0 CHG=1
M  V30 2804 N -2.2872 15.1575 8.4295 0 CHG=1
M  V30 2805 N -2.2881 8.8550 -13.1437 0 CHG=1
M  V30 2806 N -2.2885 18.4563 -13.1426 0 CHG=1
M  V30 2807 N -2.2826 37.6169 -13.1539 0 CHG=1
M  V30 2808 N 22.8653 28.0454 8.4309 0 CHG=1
M  V30 2809 N -2.2878 24.7444 8.4292 0 CHG=1
M  V30 2810 N 22.8665 34.3450 -13.1439 0 CHG=1
M  V30 2811 N 22.8607 37.6161 8.4408 0 CHG=1
M  V30 2812 N -2.2882 34.3454 8.4309 0 CHG=1
M  V30 2813 N 22.8661 15.1570 -13.1431 0 CHG=1
M  V30 2814 N -2.3447 47.2991 -13.2037 0 CHG=1
M  V30 2815 N 22.9232 47.2991 8.4909 0 CHG=1
M  V30 2816 N -2.3447 -4.0991 8.4909 0 CHG=1
M  V30 2817 N 22.8609 5.5839 -13.1536 0 CHG=1
M  V30 2818 N -2.2894 28.0453 -13.1449 0 CHG=1
M  V30 2819 N 22.8672 8.8575 8.4333 0 CHG=1
M  V30 2820 N -2.2826 5.5833 8.4415 0 CHG=1
M  V30 2821 H 19.3773 29.8338 -8.3216 0
M  V30 2822 H 19.2860 1.0168 -8.3428 0
M  V30 2823 H 1.2270 20.2658 3.6203 0
M  V30 2824 H 1.2278 3.7594 -8.3736 0
M  V30 2825 H 1.1981 13.3157 -8.3169 0
M  V30 2826 H 1.2322 32.5150 -8.3052 0
M  V30 2827 H 19.4000 22.9043 3.5646 0
M  V30 2828 H 1.2036 29.8615 3.6064 0
M  V30 2829 H 19.3463 39.4370 -8.3778 0
M  V30 2830 H 19.3579 32.5193 3.5910 0
M  V30 2831 H 1.2230 39.4437 3.6609 0
M  V30 2832 H 19.3659 20.2648 -8.3305 0
M  V30 2833 H 1.2944 42.1838 -8.3449 0
M  V30 2834 H 1.2940 1.0163 3.6318 0
M  V30 2835 H 19.2842 42.1838 3.6334 0
M  V30 2836 H 19.3529 10.6776 -8.3090 0
M  V30 2837 H 1.2065 22.9502 -8.3312 0
M  V30 2838 H 19.3604 13.3531 3.6112 0
M  V30 2839 H 19.3731 3.7548 3.6507 0
M  V30 2840 H 1.2152 10.6818 3.5778 0
M  V30 2841 H 20.7428 27.2539 -7.8123 0
M  V30 2842 H -0.2329 17.7528 3.0901 0
M  V30 2843 H 20.7115 -1.4975 -7.7490 0
M  V30 2844 H -0.2220 6.2750 -7.7868 0
M  V30 2845 H -0.1086 15.9360 -7.8366 0
M  V30 2846 H -0.2645 34.9975 -7.7978 0
M  V30 2847 H 20.8526 25.4131 3.1138 0
M  V30 2848 H -0.2107 27.3120 3.0945 0
M  V30 2849 H 20.7746 36.9098 -7.7979 0
M  V30 2850 H 20.8260 35.0303 3.0710 0
M  V30 2851 H -0.2265 36.9222 3.0719 0
M  V30 2852 H 20.8328 17.7562 -7.8019 0
M  V30 2853 H -0.1327 44.6974 -7.7490 0
M  V30 2854 H 20.7113 44.6973 3.0363 0
M  V30 2855 H -0.1328 -1.4975 3.0362 0
M  V30 2856 H 20.8189 8.1656 -7.7891 0
M  V30 2857 H -0.1970 25.5066 -7.8358 0
M  V30 2858 H 20.7824 15.8981 3.1135 0
M  V30 2859 H 20.7933 6.2918 3.0820 0
M  V30 2860 H -0.2257 8.1178 3.0836 0
M  V30 2861 H 20.6749 28.7021 -10.5409 0
M  V30 2862 H -0.0952 19.1082 5.8660 0
M  V30 2863 H 20.5617 -0.4034 -10.6120 0
M  V30 2864 H -0.1034 4.8955 -10.5511 0
M  V30 2865 H -0.1136 14.4765 -10.5649 0
M  V30 2866 H -0.0838 33.6876 -10.5883 0
M  V30 2867 H 20.8358 23.9971 5.8458 0
M  V30 2868 H -0.0934 28.7031 5.8519 0
M  V30 2869 H 20.6789 38.3016 -10.5537 0
M  V30 2870 H 20.6671 33.6897 5.8541 0
M  V30 2871 H -0.1424 38.3216 5.8286 0
M  V30 2872 H 20.6790 19.1097 -10.5780 0
M  V30 2873 H 0.0169 43.6033 -10.6119 0
M  V30 2874 H 20.5616 43.6033 5.8992 0
M  V30 2875 H 0.0169 -0.4034 5.8991 0
M  V30 2876 H 20.6641 9.5081 -10.5700 0
M  V30 2877 H -0.1107 24.0801 -10.5753 0
M  V30 2878 H 20.6853 14.4895 5.8639 0
M  V30 2879 H 20.6804 4.9013 5.8410 0
M  V30 2880 H -0.0960 9.5198 5.8844 0
M  V30 2881 H 19.8400 27.2322 -10.1434 0
M  V30 2882 H 19.8430 15.9545 5.4565 0
M  V30 2883 H 0.7284 17.6440 5.4135 0
M  V30 2884 H 19.6552 -1.7968 -10.0417 0
M  V30 2885 H 0.7186 6.3612 -10.1143 0
M  V30 2886 H 0.7563 15.9315 -10.2015 0
M  V30 2887 H 0.7299 35.1466 -10.1063 0
M  V30 2888 H 19.8981 25.4195 5.4921 0
M  V30 2889 H 0.7367 27.2397 5.4145 0
M  V30 2890 H 19.8515 36.8318 -10.1313 0
M  V30 2891 H 19.8493 35.1535 5.3857 0
M  V30 2892 H 0.7133 36.8572 5.4216 0
M  V30 2893 H 19.8579 17.6481 -10.1185 0
M  V30 2894 H 0.9235 44.9968 -10.0417 0
M  V30 2895 H 19.6551 44.9967 5.3289 0
M  V30 2896 H 0.9235 -1.7968 5.3289 0
M  V30 2897 H 19.8465 8.0437 -10.1054 0
M  V30 2898 H 0.7393 25.5422 -10.1759 0
M  V30 2899 H 19.8547 6.3668 5.4079 0
M  V30 2900 H 0.7185 8.0558 5.4001 0
M  V30 2901 H 21.9893 26.1141 -9.6642 0
M  V30 2902 H -1.4037 16.5340 4.9436 0
M  V30 2903 H 21.7433 -2.9952 -9.4711 0
M  V30 2904 H -1.4232 7.4739 -9.6531 0
M  V30 2905 H -1.3899 17.0760 -9.6650 0
M  V30 2906 H -1.3955 36.2595 -9.6548 0
M  V30 2907 H 21.9793 26.6469 4.9423 0
M  V30 2908 H -1.4044 26.1220 4.9494 0
M  V30 2909 H 22.0016 35.7243 -9.6542 0
M  V30 2910 H 21.9807 36.2638 4.9405 0
M  V30 2911 H -1.4250 35.7282 4.9370 0
M  V30 2912 H 21.7432 46.1951 4.7583 0
M  V30 2913 H 21.9842 16.5331 -9.6581 0
M  V30 2914 H -1.1647 46.1951 -9.4711 0
M  V30 2915 H -1.1647 -2.9952 4.7583 0
M  V30 2916 H 21.9804 6.9360 -9.6535 0
M  V30 2917 H -1.3991 26.6692 -9.6668 0
M  V30 2918 H 21.9902 17.0712 4.9522 0
M  V30 2919 H 22.0009 7.4807 4.9464 0
M  V30 2920 H -1.3981 6.9391 4.9446 0
M  V30 2921 H 22.9033 27.5613 -10.0209 0
M  V30 2922 H -2.3329 17.9709 5.3021 0
M  V30 2923 H 22.7072 -1.6085 -9.9851 0
M  V30 2924 H -2.3411 6.0307 -10.0146 0
M  V30 2925 H -2.3111 15.6354 -10.0238 0
M  V30 2926 H -2.3280 34.8250 -10.0158 0
M  V30 2927 H 22.9713 25.2512 5.3080 0
M  V30 2928 H -2.3288 27.5609 5.3099 0
M  V30 2929 H 22.7070 44.8085 5.2722 0
M  V30 2930 H 22.9147 37.1695 -10.0151 0
M  V30 2931 H 22.9102 34.8277 5.3010 0
M  V30 2932 H -2.3500 37.1656 5.3036 0
M  V30 2933 H 22.9168 17.9682 -10.0171 0
M  V30 2934 H -2.1285 44.8084 -9.9850 0
M  V30 2935 H -2.1285 -1.6085 5.2722 0
M  V30 2936 H 22.9080 8.3730 -10.0140 0
M  V30 2937 H -2.3277 25.2327 -10.0272 0
M  V30 2938 H 22.9103 15.6308 5.3183 0
M  V30 2939 H 22.9179 6.0372 5.3091 0
M  V30 2940 H -2.3361 8.3691 5.3087 0
M  V30 2941 H 22.2180 27.3765 -12.3938 0
M  V30 2942 H -1.6378 17.7822 7.6800 0
M  V30 2943 H 21.7168 -1.8316 -12.3046 0
M  V30 2944 H -1.6406 6.2221 -12.3896 0
M  V30 2945 H -1.6401 15.8247 -12.3993 0
M  V30 2946 H -1.6222 35.0090 -12.3913 0
M  V30 2947 H 22.2276 25.4213 7.6908 0
M  V30 2948 H -1.6395 27.3758 7.6830 0
M  V30 2949 H 22.2194 36.9775 -12.3901 0
M  V30 2950 H 22.1999 35.0074 7.6753 0
M  V30 2951 H 21.7168 45.0316 7.5918 0
M  V30 2952 H -1.6416 36.9777 7.6764 0
M  V30 2953 H 22.2168 17.7816 -12.3942 0
M  V30 2954 H -1.1383 45.0316 -12.3045 0
M  V30 2955 H -1.1383 -1.8316 7.5918 0
M  V30 2956 H 22.1997 8.1922 -12.3883 0
M  V30 2957 H -1.6397 25.4208 -12.4033 0
M  V30 2958 H 22.2210 15.8259 7.6897 0
M  V30 2959 H 22.2191 6.2251 7.6815 0
M  V30 2960 H -1.6223 8.1908 7.6801 0
M  V30 2961 H 21.1034 26.1346 -11.9711 0
M  V30 2962 H 21.1069 17.0650 7.2571 0
M  V30 2963 H -0.5251 16.5403 7.2496 0
M  V30 2964 H 20.8587 -3.2777 -11.7703 0
M  V30 2965 H -0.5281 7.4612 -11.9554 0
M  V30 2966 H -0.5254 17.0672 -11.9788 0
M  V30 2967 H -0.5165 36.2606 -11.9637 0
M  V30 2968 H 21.1129 26.6539 7.2350 0
M  V30 2969 H -0.5245 26.1356 7.2565 0
M  V30 2970 H 21.1072 35.7376 -11.9574 0
M  V30 2971 H 21.0943 36.2586 7.2471 0
M  V30 2972 H -0.5301 35.7399 7.2390 0
M  V30 2973 H 21.1039 16.5403 -11.9624 0
M  V30 2974 H -0.2802 46.4777 -11.7702 0
M  V30 2975 H 20.8587 46.4777 7.0575 0
M  V30 2976 H -0.2802 -3.2777 7.0574 0
M  V30 2977 H 21.0941 6.9405 -11.9603 0
M  V30 2978 H -0.5264 26.6634 -11.9743 0
M  V30 2979 H 21.1062 7.4647 7.2493 0
M  V30 2980 H -0.5166 6.9395 7.2509 0
M  V30 2981 H 23.2358 24.7336 -11.1022 0
M  V30 2982 H 23.1269 47.5127 6.4317 0
M  V30 2983 H -2.6561 15.1403 6.3886 0
M  V30 2984 H 23.1269 -4.3127 -11.1445 0
M  V30 2985 H -2.6596 8.8668 -11.1038 0
M  V30 2986 H -2.6560 18.4649 -11.1013 0
M  V30 2987 H -2.6526 37.6499 -11.1125 0
M  V30 2988 H 23.2387 28.0619 6.3897 0
M  V30 2989 H -2.6567 24.7342 6.3885 0
M  V30 2990 H 23.2383 34.3330 -11.1040 0
M  V30 2991 H 23.2314 37.6494 6.3997 0
M  V30 2992 H -2.6600 34.3331 6.3910 0
M  V30 2993 H 23.2345 15.1397 -11.1021 0
M  V30 2994 H -2.5484 47.5127 -11.1444 0
M  V30 2995 H -2.5484 -4.3127 6.4317 0
M  V30 2996 H 23.2306 5.5502 -11.1123 0
M  V30 2997 H -2.6558 28.0597 -11.1032 0
M  V30 2998 H 23.2357 18.4655 6.3888 0
M  V30 2999 H 23.2375 8.8686 6.3933 0
M  V30 3000 H -2.6526 5.5500 6.4002 0
M  V30 3001 H 24.1404 25.9540 -12.0100 0
M  V30 3002 H -3.5628 16.3620 7.2932 0
M  V30 3003 H 23.9070 -2.8654 -11.8456 0
M  V30 3004 H -3.5645 7.6471 -12.0124 0
M  V30 3005 H -3.5617 17.2456 -12.0097 0
M  V30 3006 H -3.5568 36.4189 -12.0073 0
M  V30 3007 H 24.1500 26.8470 7.2989 0
M  V30 3008 H -3.5617 25.9540 7.2966 0
M  V30 3009 H 24.1434 35.5528 -12.0126 0
M  V30 3010 H 24.1349 36.4182 7.2944 0
M  V30 3011 H -3.5654 35.5524 7.3000 0
M  V30 3012 H 24.1416 16.3612 -12.0066 0
M  V30 3013 H -3.3285 46.0653 -11.8456 0
M  V30 3014 H 23.9070 46.0653 7.1328 0
M  V30 3015 H -3.3285 -2.8654 7.1328 0
M  V30 3016 H 24.1348 6.7815 -12.0067 0
M  V30 3017 H -3.5643 26.8396 -12.0083 0
M  V30 3018 H 24.1435 17.2479 7.2976 0
M  V30 3019 H 24.1429 7.6489 7.3014 0
M  V30 3020 H -3.5569 6.7808 7.2948 0
M  V30 3021 H 22.4183 25.3273 -13.8531 0
M  V30 3022 H -1.8452 15.7488 9.1374 0
M  V30 3023 H 22.5275 -3.4322 -13.8808 0
M  V30 3024 H -1.8422 8.2721 -13.8560 0
M  V30 3025 H -1.8407 17.8735 -13.8536 0
M  V30 3026 H -1.8569 37.0059 -13.8560 0
M  V30 3027 H 22.4221 27.4527 9.1372 0
M  V30 3028 H -1.8396 25.3275 9.1398 0
M  V30 3029 H 22.4212 34.9282 -13.8561 0
M  V30 3030 H 22.4346 37.0052 9.1429 0
M  V30 3031 H -1.8425 34.9285 9.1432 0
M  V30 3032 H 22.4237 15.7484 -13.8507 0
M  V30 3033 H -1.9490 46.6322 -13.8807 0
M  V30 3034 H 22.5275 46.6322 9.1679 0
M  V30 3035 H -1.9490 -3.4322 9.1679 0
M  V30 3036 H 22.4347 6.1947 -13.8556 0
M  V30 3037 H -1.8470 27.4539 -13.8525 0
M  V30 3038 H 22.4183 17.8725 9.1395 0
M  V30 3039 H 22.4219 8.2740 9.1454 0
M  V30 3040 H -1.8567 6.1939 9.1434 0
M  V30 3041 H 23.6487 24.2042 -13.5010 0
M  V30 3042 H 23.6484 18.9964 8.7887 0
M  V30 3043 H -3.0712 14.6222 8.7895 0
M  V30 3044 H 23.8515 -4.3796 -13.5363 0
M  V30 3045 H -3.0700 9.3956 -13.5035 0
M  V30 3046 H -3.0710 18.9964 -13.5007 0
M  V30 3047 H -3.0747 38.1363 -13.5195 0
M  V30 3048 H 23.6470 28.5814 8.7931 0
M  V30 3049 H -3.0700 24.2044 8.7875 0
M  V30 3050 H 23.6489 33.8046 -13.5039 0
M  V30 3051 H 23.6524 38.1356 8.8061 0
M  V30 3052 H -3.0698 33.8048 8.7908 0
M  V30 3053 H 23.6499 14.6216 -13.5029 0
M  V30 3054 H -3.2730 47.5796 -13.5363 0
M  V30 3055 H 23.8515 47.5796 8.8235 0
M  V30 3056 H -3.2730 -4.3796 8.8235 0
M  V30 3057 H 23.6526 5.0645 -13.5189 0
M  V30 3058 H -3.0733 28.5806 -13.5040 0
M  V30 3059 H 23.6497 9.3977 8.7926 0
M  V30 3060 H -3.0747 5.0636 8.8069 0
M  V30 3061 H 22.0555 24.0821 -12.9596 0
M  V30 3062 H 22.0552 19.1172 8.2456 0
M  V30 3063 H -1.4757 14.4953 8.2499 0
M  V30 3064 H 22.3093 -4.9227 -13.1895 0
M  V30 3065 H -1.4772 9.5176 -12.9631 0
M  V30 3066 H -1.4775 19.1183 -12.9597 0
M  V30 3067 H -1.4706 38.2802 -12.9850 0
M  V30 3068 H 22.0526 28.7062 8.2491 0
M  V30 3069 H -1.4767 24.0823 8.2462 0
M  V30 3070 H 22.0557 33.6825 -12.9635 0
M  V30 3071 H 22.0486 38.2794 8.2717 0
M  V30 3072 H -1.4770 33.6828 8.2504 0
M  V30 3073 H 22.0544 14.4948 -12.9629 0
M  V30 3074 H -1.7308 48.1227 -13.1895 0
M  V30 3075 H 22.3093 48.1227 8.4768 0
M  V30 3076 H -1.7308 -4.9227 8.4767 0
M  V30 3077 H 22.0489 4.9204 -12.9846 0
M  V30 3078 H -1.4773 28.7068 -12.9638 0
M  V30 3079 H 22.0562 9.5196 8.2521 0
M  V30 3080 H -1.4706 4.9197 8.2723 0
M  V30 END ATOM
M  V30 BEGIN BOND
M  V30 1 1 1 34
M  V30 2 1 1 232
M  V30 3 1 2 38
M  V30 4 1 2 224
M  V30 5 1 3 27
M  V30 6 1 3 228
M  V30 7 1 4 36
M  V30 8 1 4 226
M  V30 9 1 5 37
M  V30 10 1 5 240
M  V30 11 1 6 32
M  V30 12 1 6 236
M  V30 13 1 7 40
M  V30 14 1 7 230
M  V30 15 1 8 31
M  V30 16 1 8 233
M  V30 17 1 9 23
M  V30 18 1 9 238
M  V30 19 1 10 30
M  V30 20 1 10 225
M  V30 21 1 11 25
M  V30 22 1 11 239
M  V30 23 1 12 35
M  V30 24 1 12 221
M  V30 25 1 13 26
M  V30 26 1 13 222
M  V30 27 1 14 28
M  V30 28 1 14 237
M  V30 29 1 15 24
M  V30 30 1 15 223
M  V30 31 1 16 22
M  V30 32 1 16 231
M  V30 33 1 17 21
M  V30 34 1 17 235
M  V30 35 1 18 29
M  V30 36 1 18 234
M  V30 37 1 19 33
M  V30 38 1 19 229
M  V30 39 1 20 39
M  V30 40 1 20 227
M  V30 41 1 21 44
M  V30 42 1 21 100
M  V30 43 1 21 259
M  V30 44 1 22 51
M  V30 45 1 22 84
M  V30 46 1 22 256
M  V30 47 1 23 45
M  V30 48 1 23 98
M  V30 49 1 23 254
M  V30 50 1 24 48
M  V30 51 1 24 91
M  V30 52 1 24 246
M  V30 53 1 25 60
M  V30 54 1 25 90
M  V30 55 1 25 244
M  V30 56 1 26 41
M  V30 57 1 26 97
M  V30 58 1 26 248
M  V30 59 1 27 55
M  V30 60 1 27 94
M  V30 61 1 27 243
M  V30 62 1 28 54
M  V30 63 1 28 87
M  V30 64 1 28 257
M  V30 65 1 29 43
M  V30 66 1 29 81
M  V30 67 1 29 250
M  V30 68 1 30 57
M  V30 69 1 30 82
M  V30 70 1 30 251
M  V30 71 1 31 52
M  V30 72 1 31 96
M  V30 73 1 31 260
M  V30 74 1 32 49
M  V30 75 1 32 89
M  V30 76 1 32 255
M  V30 77 1 33 59
M  V30 78 1 33 99
M  V30 79 1 33 247
M  V30 80 1 34 46
M  V30 81 1 34 92
M  V30 82 1 34 242
M  V30 83 1 35 58
M  V30 84 1 35 88
M  V30 85 1 35 258
M  V30 86 1 36 42
M  V30 87 1 36 83
M  V30 88 1 36 249
M  V30 89 1 37 47
M  V30 90 1 37 86
M  V30 91 1 37 241
M  V30 92 1 38 50
M  V30 93 1 38 95
M  V30 94 1 38 253
M  V30 95 1 39 53
M  V30 96 1 39 93
M  V30 97 1 39 252
M  V30 98 1 40 56
M  V30 99 1 40 85
M  V30 100 1 40 245
M  V30 101 2 41 62
M  V30 102 1 41 402
M  V30 103 2 42 68
M  V30 104 1 42 407
M  V30 105 2 43 63
M  V30 106 1 43 414
M  V30 107 2 44 66
M  V30 108 1 44 420
M  V30 109 2 45 79
M  V30 110 1 45 412
M  V30 111 2 46 76
M  V30 112 1 46 404
M  V30 113 2 47 72
M  V30 114 1 47 419
M  V30 115 2 48 77
M  V30 116 1 48 405
M  V30 117 2 49 78
M  V30 118 1 49 403
M  V30 119 2 50 65
M  V30 120 1 50 408
M  V30 121 2 51 75
M  V30 122 1 51 416
M  V30 123 2 52 74
M  V30 124 1 52 418
M  V30 125 2 53 73
M  V30 126 1 53 409
M  V30 127 2 54 69
M  V30 128 1 54 411
M  V30 129 2 55 70
M  V30 130 1 55 415
M  V30 131 2 56 80
M  V30 132 1 56 410
M  V30 133 2 57 71
M  V30 134 1 57 401
M  V30 135 2 58 67
M  V30 136 1 58 406
M  V30 137 2 59 61
M  V30 138 1 59 413
M  V30 139 2 60 64
M  V30 140 1 60 417
M  V30 141 1 81 111
M  V30 142 1 81 276
M  V30 143 1 81 299
M  V30 144 1 82 107
M  V30 145 1 82 264
M  V30 146 1 82 295
M  V30 147 1 83 108
M  V30 148 1 83 274
M  V30 149 1 83 298
M  V30 150 1 84 117
M  V30 151 1 84 266
M  V30 152 1 84 285
M  V30 153 1 85 120
M  V30 154 1 85 267
M  V30 155 1 85 300
M  V30 156 1 86 101
M  V30 157 1 86 272
M  V30 158 1 86 288
M  V30 159 1 87 103
M  V30 160 1 87 265
M  V30 161 1 87 294
M  V30 162 1 88 105
M  V30 163 1 88 280
M  V30 164 1 88 297
M  V30 165 1 89 102
M  V30 166 1 89 279
M  V30 167 1 89 282
M  V30 168 1 90 104
M  V30 169 1 90 269
M  V30 170 1 90 281
M  V30 171 1 91 119
M  V30 172 1 91 271
M  V30 173 1 91 293
M  V30 174 1 92 116
M  V30 175 1 92 261
M  V30 176 1 92 292
M  V30 177 1 93 112
M  V30 178 1 93 278
M  V30 179 1 93 284
M  V30 180 1 94 109
M  V30 181 1 94 268
M  V30 182 1 94 296
M  V30 183 1 95 110
M  V30 184 1 95 262
M  V30 185 1 95 283
M  V30 186 1 96 118
M  V30 187 1 96 273
M  V30 188 1 96 290
M  V30 189 1 97 114
M  V30 190 1 97 275
M  V30 191 1 97 291
M  V30 192 1 98 106
M  V30 193 1 98 270
M  V30 194 1 98 289
M  V30 195 1 99 115
M  V30 196 1 99 277
M  V30 197 1 99 287
M  V30 198 1 100 113
M  V30 199 1 100 263
M  V30 200 1 100 286
M  V30 201 2 101 125
M  V30 202 1 101 145
M  V30 203 2 102 123
M  V30 204 1 102 142
M  V30 205 2 103 131
M  V30 206 1 103 141
M  V30 207 2 104 124
M  V30 208 1 104 154
M  V30 209 2 105 127
M  V30 210 1 105 151
M  V30 211 2 106 136
M  V30 212 1 106 159
M  V30 213 2 107 134
M  V30 214 1 107 155
M  V30 215 2 108 133
M  V30 216 1 108 157
M  V30 217 2 109 138
M  V30 218 1 109 158
M  V30 219 2 110 126
M  V30 220 1 110 148
M  V30 221 2 111 128
M  V30 222 1 111 149
M  V30 223 2 112 130
M  V30 224 1 112 143
M  V30 225 2 113 140
M  V30 226 1 113 160
M  V30 227 2 114 129
M  V30 228 1 114 156
M  V30 229 2 115 139
M  V30 230 1 115 152
M  V30 231 2 116 121
M  V30 232 1 116 144
M  V30 233 2 117 135
M  V30 234 1 117 147
M  V30 235 2 118 122
M  V30 236 1 118 153
M  V30 237 2 119 132
M  V30 238 1 119 146
M  V30 239 2 120 137
M  V30 240 1 120 150
M  V30 241 1 121 170
M  V30 242 1 121 308
M  V30 243 1 122 178
M  V30 244 1 122 318
M  V30 245 1 123 165
M  V30 246 1 123 302
M  V30 247 1 124 164
M  V30 248 1 124 310
M  V30 249 1 125 172
M  V30 250 1 125 306
M  V30 251 1 126 163
M  V30 252 1 126 305
M  V30 253 1 127 177
M  V30 254 1 127 315
M  V30 255 1 128 171
M  V30 256 1 128 304
M  V30 257 1 129 173
M  V30 258 1 129 307
M  V30 259 1 130 167
M  V30 260 1 130 317
M  V30 261 1 131 179
M  V30 262 1 131 314
M  V30 263 1 132 174
M  V30 264 1 132 313
M  V30 265 1 133 175
M  V30 266 1 133 319
M  V30 267 1 134 161
M  V30 268 1 134 320
M  V30 269 1 135 180
M  V30 270 1 135 309
M  V30 271 1 136 176
M  V30 272 1 136 301
M  V30 273 1 137 168
M  V30 274 1 137 312
M  V30 275 1 138 162
M  V30 276 1 138 316
M  V30 277 1 139 166
M  V30 278 1 139 303
M  V30 279 1 140 169
M  V30 280 1 140 311
M  V30 281 2 141 197
M  V30 282 1 141 338
M  V30 283 2 142 186
M  V30 284 1 142 321
M  V30 285 2 143 181
M  V30 286 1 143 327
M  V30 287 2 144 190
M  V30 288 1 144 340
M  V30 289 2 145 194
M  V30 290 1 145 324
M  V30 291 2 146 195
M  V30 292 1 146 323
M  V30 293 2 147 187
M  V30 294 1 147 329
M  V30 295 2 148 196
M  V30 296 1 148 331
M  V30 297 2 149 182
M  V30 298 1 149 335
M  V30 299 2 150 189
M  V30 300 1 150 330
M  V30 301 2 151 198
M  V30 302 1 151 328
M  V30 303 2 152 184
M  V30 304 1 152 333
M  V30 305 2 153 192
M  V30 306 1 153 322
M  V30 307 2 154 188
M  V30 308 1 154 334
M  V30 309 2 155 183
M  V30 310 1 155 332
M  V30 311 2 156 191
M  V30 312 1 156 336
M  V30 313 2 157 185
M  V30 314 1 157 337
M  V30 315 2 158 199
M  V30 316 1 158 326
M  V30 317 2 159 193
M  V30 318 1 159 325
M  V30 319 2 160 200
M  V30 320 1 160 339
M  V30 321 2 161 213
M  V30 322 1 161 349
M  V30 323 2 162 214
M  V30 324 1 162 354
M  V30 325 2 163 207
M  V30 326 1 163 341
M  V30 327 2 164 204
M  V30 328 1 164 348
M  V30 329 2 165 201
M  V30 330 1 165 353
M  V30 331 2 166 202
M  V30 332 1 166 350
M  V30 333 2 167 208
M  V30 334 1 167 346
M  V30 335 2 168 206
M  V30 336 1 168 351
M  V30 337 2 169 210
M  V30 338 1 169 355
M  V30 339 2 170 209
M  V30 340 1 170 352
M  V30 341 2 171 218
M  V30 342 1 171 344
M  V30 343 2 172 220
M  V30 344 1 172 347
M  V30 345 2 173 211
M  V30 346 1 173 356
M  V30 347 2 174 212
M  V30 348 1 174 342
M  V30 349 2 175 216
M  V30 350 1 175 345
M  V30 351 2 176 217
M  V30 352 1 176 360
M  V30 353 2 177 203
M  V30 354 1 177 358
M  V30 355 2 178 205
M  V30 356 1 178 359
M  V30 357 2 179 219
M  V30 358 1 179 343
M  V30 359 2 180 215
M  V30 360 1 180 357
M  V30 361 1 181 208
M  V30 362 1 181 378
M  V30 363 1 182 218
M  V30 364 1 182 379
M  V30 365 1 183 213
M  V30 366 1 183 372
M  V30 367 1 184 202
M  V30 368 1 184 373
M  V30 369 1 185 216
M  V30 370 1 185 376
M  V30 371 1 186 201
M  V30 372 1 186 367
M  V30 373 1 187 215
M  V30 374 1 187 380
M  V30 375 1 188 204
M  V30 376 1 188 361
M  V30 377 1 189 206
M  V30 378 1 189 368
M  V30 379 1 190 209
M  V30 380 1 190 375
M  V30 381 1 191 211
M  V30 382 1 191 371
M  V30 383 1 192 205
M  V30 384 1 192 365
M  V30 385 1 193 217
M  V30 386 1 193 364
M  V30 387 1 194 220
M  V30 388 1 194 369
M  V30 389 1 195 212
M  V30 390 1 195 362
M  V30 391 1 196 207
M  V30 392 1 196 370
M  V30 393 1 197 219
M  V30 394 1 197 366
M  V30 395 1 198 203
M  V30 396 1 198 374
M  V30 397 1 199 214
M  V30 398 1 199 377
M  V30 399 1 200 210
M  V30 400 1 200 363
M  V30 401 1 201 395
M  V30 402 1 202 382
M  V30 403 1 203 389
M  V30 404 1 204 397
M  V30 405 1 205 383
M  V30 406 1 206 394
M  V30 407 1 207 385
M  V30 408 1 208 386
M  V30 409 1 209 399
M  V30 410 1 210 400
M  V30 411 1 211 384
M  V30 412 1 212 387
M  V30 413 1 213 381
M  V30 414 1 214 393
M  V30 415 1 215 390
M  V30 416 1 216 398
M  V30 417 1 217 396
M  V30 418 1 218 392
M  V30 419 1 219 391
M  V30 420 1 220 388
M  V30 421 1 401 429
M  V30 422 1 401 587
M  V30 423 1 402 423
M  V30 424 1 402 584
M  V30 425 1 403 425
M  V30 426 1 403 592
M  V30 427 1 404 439
M  V30 428 1 404 596
M  V30 429 1 405 434
M  V30 430 1 405 589
M  V30 431 1 406 431
M  V30 432 1 406 594
M  V30 433 1 407 433
M  V30 434 1 407 582
M  V30 435 1 408 432
M  V30 436 1 408 588
M  V30 437 1 409 435
M  V30 438 1 409 586
M  V30 439 1 410 421
M  V30 440 1 410 581
M  V30 441 1 411 424
M  V30 442 1 411 598
M  V30 443 1 412 422
M  V30 444 1 412 600
M  V30 445 1 413 428
M  V30 446 1 413 585
M  V30 447 1 414 436
M  V30 448 1 414 593
M  V30 449 1 415 426
M  V30 450 1 415 583
M  V30 451 1 416 438
M  V30 452 1 416 599
M  V30 453 1 417 427
M  V30 454 1 417 591
M  V30 455 1 418 440
M  V30 456 1 418 597
M  V30 457 1 419 437
M  V30 458 1 419 595
M  V30 459 1 420 430
M  V30 460 1 420 590
M  V30 461 1 421 454
M  V30 462 1 421 496
M  V30 463 1 421 601
M  V30 464 1 422 442
M  V30 465 1 422 491
M  V30 466 1 422 604
M  V30 467 1 423 448
M  V30 468 1 423 494
M  V30 469 1 423 613
M  V30 470 1 424 460
M  V30 471 1 424 493
M  V30 472 1 424 619
M  V30 473 1 425 443
M  V30 474 1 425 490
M  V30 475 1 425 602
M  V30 476 1 426 444
M  V30 477 1 426 499
M  V30 478 1 426 608
M  V30 479 1 427 449
M  V30 480 1 427 481
M  V30 481 1 427 605
M  V30 482 1 428 452
M  V30 483 1 428 495
M  V30 484 1 428 612
M  V30 485 1 429 453
M  V30 486 1 429 485
M  V30 487 1 429 609
M  V30 488 1 430 441
M  V30 489 1 430 500
M  V30 490 1 430 618
M  V30 491 1 431 455
M  V30 492 1 431 489
M  V30 493 1 431 610
M  V30 494 1 432 459
M  V30 495 1 432 482
M  V30 496 1 432 620
M  V30 497 1 433 456
M  V30 498 1 433 483
M  V30 499 1 433 617
M  V30 500 1 434 450
M  V30 501 1 434 486
M  V30 502 1 434 611
M  V30 503 1 435 451
M  V30 504 1 435 497
M  V30 505 1 435 615
M  V30 506 1 436 457
M  V30 507 1 436 484
M  V30 508 1 436 616
M  V30 509 1 437 447
M  V30 510 1 437 498
M  V30 511 1 437 606
M  V30 512 1 438 458
M  V30 513 1 438 487
M  V30 514 1 438 607
M  V30 515 1 439 446
M  V30 516 1 439 488
M  V30 517 1 439 614
M  V30 518 1 440 445
M  V30 519 1 440 492
M  V30 520 1 440 603
M  V30 521 2 441 476
M  V30 522 1 441 708
M  V30 523 2 442 466
M  V30 524 1 442 714
M  V30 525 2 443 461
M  V30 526 1 443 716
M  V30 527 2 444 464
M  V30 528 1 444 703
M  V30 529 2 445 463
M  V30 530 1 445 709
M  V30 531 2 446 465
M  V30 532 1 446 713
M  V30 533 2 447 472
M  V30 534 1 447 720
M  V30 535 2 448 477
M  V30 536 1 448 718
M  V30 537 2 449 471
M  V30 538 1 449 705
M  V30 539 2 450 468
M  V30 540 1 450 702
M  V30 541 2 451 474
M  V30 542 1 451 701
M  V30 543 2 452 462
M  V30 544 1 452 712
M  V30 545 2 453 480
M  V30 546 1 453 704
M  V30 547 2 454 478
M  V30 548 1 454 715
M  V30 549 2 455 473
M  V30 550 1 455 706
M  V30 551 2 456 479
M  V30 552 1 456 707
M  V30 553 2 457 470
M  V30 554 1 457 719
M  V30 555 2 458 469
M  V30 556 1 458 711
M  V30 557 2 459 467
M  V30 558 1 459 710
M  V30 559 2 460 475
M  V30 560 1 460 717
M  V30 561 1 481 520
M  V30 562 1 481 623
M  V30 563 1 481 641
M  V30 564 1 482 505
M  V30 565 1 482 638
M  V30 566 1 482 650
M  V30 567 1 483 518
M  V30 568 1 483 626
M  V30 569 1 483 657
M  V30 570 1 484 512
M  V30 571 1 484 628
M  V30 572 1 484 654
M  V30 573 1 485 502
M  V30 574 1 485 624
M  V30 575 1 485 646
M  V30 576 1 486 513
M  V30 577 1 486 622
M  V30 578 1 486 656
M  V30 579 1 487 517
M  V30 580 1 487 630
M  V30 581 1 487 659
M  V30 582 1 488 508
M  V30 583 1 488 634
M  V30 584 1 488 647
M  V30 585 1 489 510
M  V30 586 1 489 629
M  V30 587 1 489 655
M  V30 588 1 490 514
M  V30 589 1 490 640
M  V30 590 1 490 649
M  V30 591 1 491 515
M  V30 592 1 491 633
M  V30 593 1 491 648
M  V30 594 1 492 503
M  V30 595 1 492 632
M  V30 596 1 492 653
M  V30 597 1 493 501
M  V30 598 1 493 639
M  V30 599 1 493 660
M  V30 600 1 494 504
M  V30 601 1 494 631
M  V30 602 1 494 651
M  V30 603 1 495 506
M  V30 604 1 495 625
M  V30 605 1 495 644
M  V30 606 1 496 509
M  V30 607 1 496 635
M  V30 608 1 496 642
M  V30 609 1 497 511
M  V30 610 1 497 621
M  V30 611 1 497 643
M  V30 612 1 498 519
M  V30 613 1 498 636
M  V30 614 1 498 645
M  V30 615 1 499 516
M  V30 616 1 499 627
M  V30 617 1 499 658
M  V30 618 1 500 507
M  V30 619 1 500 637
M  V30 620 1 500 652
M  V30 621 1 501 521
M  V30 622 1 501 672
M  V30 623 1 501 698
M  V30 624 1 502 535
M  V30 625 1 502 664
M  V30 626 1 502 693
M  V30 627 1 503 522
M  V30 628 1 503 663
M  V30 629 1 503 681
M  V30 630 1 504 528
M  V30 631 1 504 674
M  V30 632 1 504 684
M  V30 633 1 505 525
M  V30 634 1 505 678
M  V30 635 1 505 682
M  V30 636 1 506 530
M  V30 637 1 506 677
M  V30 638 1 506 697
M  V30 639 1 507 523
M  V30 640 1 507 666
M  V30 641 1 507 699
M  V30 642 1 508 539
M  V30 643 1 508 680
M  V30 644 1 508 686
M  V30 645 1 509 526
M  V30 646 1 509 669
M  V30 647 1 509 691
M  V30 648 1 510 536
M  V30 649 1 510 671
M  V30 650 1 510 692
M  V30 651 1 511 532
M  V30 652 1 511 668
M  V30 653 1 511 695
M  V30 654 1 512 538
M  V30 655 1 512 662
M  V30 656 1 512 700
M  V30 657 1 513 533
M  V30 658 1 513 679
M  V30 659 1 513 689
M  V30 660 1 514 529
M  V30 661 1 514 675
M  V30 662 1 514 683
M  V30 663 1 515 537
M  V30 664 1 515 670
M  V30 665 1 515 688
M  V30 666 1 516 527
M  V30 667 1 516 676
M  V30 668 1 516 694
M  V30 669 1 517 534
M  V30 670 1 517 667
M  V30 671 1 517 687
M  V30 672 1 518 540
M  V30 673 1 518 661
M  V30 674 1 518 685
M  V30 675 1 519 531
M  V30 676 1 519 673
M  V30 677 1 519 696
M  V30 678 1 520 524
M  V30 679 1 520 665
M  V30 680 1 520 690
M  V30 681 2 521 551
M  V30 682 1 521 569
M  V30 683 2 522 548
M  V30 684 1 522 572
M  V30 685 2 523 555
M  V30 686 1 523 568
M  V30 687 2 524 560
M  V30 688 1 524 564
M  V30 689 2 525 553
M  V30 690 1 525 579
M  V30 691 2 526 547
M  V30 692 1 526 573
M  V30 693 2 527 549
M  V30 694 1 527 574
M  V30 695 2 528 542
M  V30 696 1 528 563
M  V30 697 2 529 558
M  V30 698 1 529 575
M  V30 699 2 530 550
M  V30 700 1 530 570
M  V30 701 2 531 544
M  V30 702 1 531 571
M  V30 703 2 532 554
M  V30 704 1 532 561
M  V30 705 2 533 543
M  V30 706 1 533 577
M  V30 707 2 534 559
M  V30 708 1 534 565
M  V30 709 2 535 545
M  V30 710 1 535 567
M  V30 711 2 536 552
M  V30 712 1 536 578
M  V30 713 2 537 557
M  V30 714 1 537 580
M  V30 715 2 538 541
M  V30 716 1 538 562
M  V30 717 2 539 546
M  V30 718 1 539 576
M  V30 719 2 540 556
M  V30 720 1 540 566
M  V30 721 1 701 725
M  V30 722 1 701 937
M  V30 723 1 702 738
M  V30 724 1 702 927
M  V30 725 1 703 726
M  V30 726 1 703 924
M  V30 727 1 704 736
M  V30 728 1 704 925
M  V30 729 1 705 732
M  V30 730 1 705 929
M  V30 731 1 706 729
M  V30 732 1 706 940
M  V30 733 1 707 730
M  V30 734 1 707 931
M  V30 735 1 708 737
M  V30 736 1 708 921
M  V30 737 1 709 727
M  V30 738 1 709 934
M  V30 739 1 710 739
M  V30 740 1 710 939
M  V30 741 1 711 721
M  V30 742 1 711 922
M  V30 743 1 712 731
M  V30 744 1 712 930
M  V30 745 1 713 735
M  V30 746 1 713 935
M  V30 747 1 714 728
M  V30 748 1 714 932
M  V30 749 1 715 724
M  V30 750 1 715 928
M  V30 751 1 716 723
M  V30 752 1 716 938
M  V30 753 1 717 733
M  V30 754 1 717 933
M  V30 755 1 718 722
M  V30 756 1 718 923
M  V30 757 1 719 740
M  V30 758 1 719 936
M  V30 759 1 720 734
M  V30 760 1 720 926
M  V30 761 1 721 753
M  V30 762 1 721 791
M  V30 763 1 721 946
M  V30 764 1 722 749
M  V30 765 1 722 786
M  V30 766 1 722 948
M  V30 767 1 723 760
M  V30 768 1 723 792
M  V30 769 1 723 958
M  V30 770 1 724 748
M  V30 771 1 724 781
M  V30 772 1 724 949
M  V30 773 1 725 757
M  V30 774 1 725 797
M  V30 775 1 725 957
M  V30 776 1 726 742
M  V30 777 1 726 798
M  V30 778 1 726 950
M  V30 779 1 727 755
M  V30 780 1 727 788
M  V30 781 1 727 944
M  V30 782 1 728 741
M  V30 783 1 728 782
M  V30 784 1 728 960
M  V30 785 1 729 751
M  V30 786 1 729 794
M  V30 787 1 729 955
M  V30 788 1 730 750
M  V30 789 1 730 795
M  V30 790 1 730 952
M  V30 791 1 731 756
M  V30 792 1 731 793
M  V30 793 1 731 951
M  V30 794 1 732 743
M  V30 795 1 732 783
M  V30 796 1 732 947
M  V30 797 1 733 745
M  V30 798 1 733 785
M  V30 799 1 733 956
M  V30 800 1 734 746
M  V30 801 1 734 790
M  V30 802 1 734 942
M  V30 803 1 735 744
M  V30 804 1 735 787
M  V30 805 1 735 953
M  V30 806 1 736 754
M  V30 807 1 736 789
M  V30 808 1 736 945
M  V30 809 1 737 747
M  V30 810 1 737 784
M  V30 811 1 737 943
M  V30 812 1 738 752
M  V30 813 1 738 800
M  V30 814 1 738 941
M  V30 815 1 739 759
M  V30 816 1 739 799
M  V30 817 1 739 959
M  V30 818 1 740 758
M  V30 819 1 740 796
M  V30 820 1 740 954
M  V30 821 2 741 768
M  V30 822 1 741 1112
M  V30 823 2 742 765
M  V30 824 1 742 1116
M  V30 825 2 743 763
M  V30 826 1 743 1102
M  V30 827 2 744 769
M  V30 828 1 744 1113
M  V30 829 2 745 777
M  V30 830 1 745 1111
M  V30 831 2 746 767
M  V30 832 1 746 1106
M  V30 833 2 747 761
M  V30 834 1 747 1104
M  V30 835 2 748 770
M  V30 836 1 748 1115
M  V30 837 2 749 764
M  V30 838 1 749 1118
M  V30 839 2 750 775
M  V30 840 1 750 1109
M  V30 841 2 751 773
M  V30 842 1 751 1108
M  V30 843 2 752 771
M  V30 844 1 752 1107
M  V30 845 2 753 766
M  V30 846 1 753 1114
M  V30 847 2 754 780
M  V30 848 1 754 1117
M  V30 849 2 755 774
M  V30 850 1 755 1105
M  V30 851 2 756 772
M  V30 852 1 756 1110
M  V30 853 2 757 762
M  V30 854 1 757 1103
M  V30 855 2 758 778
M  V30 856 1 758 1119
M  V30 857 2 759 779
M  V30 858 1 759 1101
M  V30 859 2 760 776
M  V30 860 1 760 1120
M  V30 861 1 781 814
M  V30 862 1 781 970
M  V30 863 1 781 986
M  V30 864 1 782 808
M  V30 865 1 782 966
M  V30 866 1 782 994
M  V30 867 1 783 802
M  V30 868 1 783 962
M  V30 869 1 783 983
M  V30 870 1 784 816
M  V30 871 1 784 967
M  V30 872 1 784 996
M  V30 873 1 785 815
M  V30 874 1 785 975
M  V30 875 1 785 1000
M  V30 876 1 786 803
M  V30 877 1 786 968
M  V30 878 1 786 985
M  V30 879 1 787 807
M  V30 880 1 787 973
M  V30 881 1 787 992
M  V30 882 1 788 804
M  V30 883 1 788 974
M  V30 884 1 788 987
M  V30 885 1 789 811
M  V30 886 1 789 961
M  V30 887 1 789 989
M  V30 888 1 790 805
M  V30 889 1 790 964
M  V30 890 1 790 982
M  V30 891 1 791 801
M  V30 892 1 791 976
M  V30 893 1 791 998
M  V30 894 1 792 806
M  V30 895 1 792 979
M  V30 896 1 792 991
M  V30 897 1 793 812
M  V30 898 1 793 971
M  V30 899 1 793 995
M  V30 900 1 794 813
M  V30 901 1 794 977
M  V30 902 1 794 993
M  V30 903 1 795 818
M  V30 904 1 795 972
M  V30 905 1 795 997
M  V30 906 1 796 820
M  V30 907 1 796 978
M  V30 908 1 796 999
M  V30 909 1 797 817
M  V30 910 1 797 969
M  V30 911 1 797 988
M  V30 912 1 798 810
M  V30 913 1 798 963
M  V30 914 1 798 984
M  V30 915 1 799 819
M  V30 916 1 799 980
M  V30 917 1 799 981
M  V30 918 1 800 809
M  V30 919 1 800 965
M  V30 920 1 800 990
M  V30 921 2 801 831
M  V30 922 1 801 848
M  V30 923 2 802 829
M  V30 924 1 802 855
M  V30 925 2 803 832
M  V30 926 1 803 847
M  V30 927 2 804 825
M  V30 928 1 804 841
M  V30 929 2 805 824
M  V30 930 1 805 843
M  V30 931 2 806 836
M  V30 932 1 806 857
M  V30 933 2 807 828
M  V30 934 1 807 845
M  V30 935 2 808 826
M  V30 936 1 808 842
M  V30 937 2 809 830
M  V30 938 1 809 846
M  V30 939 2 810 822
M  V30 940 1 810 854
M  V30 941 2 811 837
M  V30 942 1 811 853
M  V30 943 2 812 833
M  V30 944 1 812 860
M  V30 945 2 813 834
M  V30 946 1 813 850
M  V30 947 2 814 823
M  V30 948 1 814 849
M  V30 949 2 815 827
M  V30 950 1 815 852
M  V30 951 2 816 821
M  V30 952 1 816 859
M  V30 953 2 817 839
M  V30 954 1 817 844
M  V30 955 2 818 835
M  V30 956 1 818 851
M  V30 957 2 819 840
M  V30 958 1 819 858
M  V30 959 2 820 838
M  V30 960 1 820 856
M  V30 961 1 821 875
M  V30 962 1 821 1014
M  V30 963 1 822 861
M  V30 964 1 822 1007
M  V30 965 1 823 868
M  V30 966 1 823 1003
M  V30 967 1 824 865
M  V30 968 1 824 1013
M  V30 969 1 825 874
M  V30 970 1 825 1004
M  V30 971 1 826 867
M  V30 972 1 826 1018
M  V30 973 1 827 876
M  V30 974 1 827 1019
M  V30 975 1 828 866
M  V30 976 1 828 1012
M  V30 977 1 829 877
M  V30 978 1 829 1008
M  V30 979 1 830 863
M  V30 980 1 830 1011
M  V30 981 1 831 870
M  V30 982 1 831 1009
M  V30 983 1 832 862
M  V30 984 1 832 1005
M  V30 985 1 833 872
M  V30 986 1 833 1017
M  V30 987 1 834 878
M  V30 988 1 834 1015
M  V30 989 1 835 873
M  V30 990 1 835 1016
M  V30 991 1 836 869
M  V30 992 1 836 1002
M  V30 993 1 837 864
M  V30 994 1 837 1006
M  V30 995 1 838 880
M  V30 996 1 838 1020
M  V30 997 1 839 871
M  V30 998 1 839 1010
M  V30 999 1 840 879
M  V30 1000 1 840 1001
M  V30 1001 2 841 885
M  V30 1002 1 841 1034
M  V30 1003 2 842 892
M  V30 1004 1 842 1039
M  V30 1005 2 843 893
M  V30 1006 1 843 1028
M  V30 1007 2 844 896
M  V30 1008 1 844 1027
M  V30 1009 2 845 886
M  V30 1010 1 845 1021
M  V30 1011 2 846 882
M  V30 1012 1 846 1022
M  V30 1013 2 847 883
M  V30 1014 1 847 1031
M  V30 1015 2 848 881
M  V30 1016 1 848 1035
M  V30 1017 2 849 898
M  V30 1018 1 849 1025
M  V30 1019 2 850 888
M  V30 1020 1 850 1030
M  V30 1021 2 851 897
M  V30 1022 1 851 1037
M  V30 1023 2 852 895
M  V30 1024 1 852 1040
M  V30 1025 2 853 887
M  V30 1026 1 853 1033
M  V30 1027 2 854 894
M  V30 1028 1 854 1032
M  V30 1029 2 855 891
M  V30 1030 1 855 1036
M  V30 1031 2 856 899
M  V30 1032 1 856 1026
M  V30 1033 2 857 884
M  V30 1034 1 857 1023
M  V30 1035 2 858 900
M  V30 1036 1 858 1029
M  V30 1037 2 859 890
M  V30 1038 1 859 1024
M  V30 1039 2 860 889
M  V30 1040 1 860 1038
M  V30 1041 2 861 905
M  V30 1042 1 861 1042
M  V30 1043 2 862 902
M  V30 1044 1 862 1058
M  V30 1045 2 863 909
M  V30 1046 1 863 1053
M  V30 1047 2 864 910
M  V30 1048 1 864 1043
M  V30 1049 2 865 907
M  V30 1050 1 865 1046
M  V30 1051 2 866 914
M  V30 1052 1 866 1056
M  V30 1053 2 867 913
M  V30 1054 1 867 1050
M  V30 1055 2 868 915
M  V30 1056 1 868 1045
M  V30 1057 2 869 919
M  V30 1058 1 869 1060
M  V30 1059 2 870 906
M  V30 1060 1 870 1047
M  V30 1061 2 871 901
M  V30 1062 1 871 1054
M  V30 1063 2 872 911
M  V30 1064 1 872 1049
M  V30 1065 2 873 912
M  V30 1066 1 873 1052
M  V30 1067 2 874 903
M  V30 1068 1 874 1057
M  V30 1069 2 875 908
M  V30 1070 1 875 1041
M  V30 1071 2 876 904
M  V30 1072 1 876 1051
M  V30 1073 2 877 918
M  V30 1074 1 877 1055
M  V30 1075 2 878 916
M  V30 1076 1 878 1048
M  V30 1077 2 879 920
M  V30 1078 1 879 1044
M  V30 1079 2 880 917
M  V30 1080 1 880 1059
M  V30 1081 1 881 906
M  V30 1082 1 881 1066
M  V30 1083 1 882 909
M  V30 1084 1 882 1061
M  V30 1085 1 883 902
M  V30 1086 1 883 1076
M  V30 1087 1 884 919
M  V30 1088 1 884 1063
M  V30 1089 1 885 903
M  V30 1090 1 885 1068
M  V30 1091 1 886 914
M  V30 1092 1 886 1072
M  V30 1093 1 887 910
M  V30 1094 1 887 1062
M  V30 1095 1 888 916
M  V30 1096 1 888 1077
M  V30 1097 1 889 911
M  V30 1098 1 889 1071
M  V30 1099 1 890 908
M  V30 1100 1 890 1074
M  V30 1101 1 891 918
M  V30 1102 1 891 1080
M  V30 1103 1 892 913
M  V30 1104 1 892 1067
M  V30 1105 1 893 907
M  V30 1106 1 893 1078
M  V30 1107 1 894 905
M  V30 1108 1 894 1064
M  V30 1109 1 895 904
M  V30 1110 1 895 1075
M  V30 1111 1 896 901
M  V30 1112 1 896 1069
M  V30 1113 1 897 912
M  V30 1114 1 897 1070
M  V30 1115 1 898 915
M  V30 1116 1 898 1065
M  V30 1117 1 899 917
M  V30 1118 1 899 1079
M  V30 1119 1 900 920
M  V30 1120 1 900 1073
M  V30 1121 1 901 1087
M  V30 1122 1 902 1094
M  V30 1123 1 903 1083
M  V30 1124 1 904 1096
M  V30 1125 1 905 1093
M  V30 1126 1 906 1085
M  V30 1127 1 907 1097
M  V30 1128 1 908 1081
M  V30 1129 1 909 1088
M  V30 1130 1 910 1086
M  V30 1131 1 911 1095
M  V30 1132 1 912 1089
M  V30 1133 1 913 1082
M  V30 1134 1 914 1090
M  V30 1135 1 915 1098
M  V30 1136 1 916 1091
M  V30 1137 1 917 1099
M  V30 1138 1 918 1092
M  V30 1139 1 919 1100
M  V30 1140 1 920 1084
M  V30 1141 1 1101 1137
M  V30 1142 1 1101 1297
M  V30 1143 1 1102 1127
M  V30 1144 1 1102 1283
M  V30 1145 1 1103 1125
M  V30 1146 1 1103 1286
M  V30 1147 1 1104 1124
M  V30 1148 1 1104 1281
M  V30 1149 1 1105 1122
M  V30 1150 1 1105 1282
M  V30 1151 1 1106 1133
M  V30 1152 1 1106 1292
M  V30 1153 1 1107 1126
M  V30 1154 1 1107 1287
M  V30 1155 1 1108 1128
M  V30 1156 1 1108 1290
M  V30 1157 1 1109 1130
M  V30 1158 1 1109 1291
M  V30 1159 1 1110 1131
M  V30 1160 1 1110 1295
M  V30 1161 1 1111 1135
M  V30 1162 1 1111 1296
M  V30 1163 1 1112 1138
M  V30 1164 1 1112 1284
M  V30 1165 1 1113 1132
M  V30 1166 1 1113 1288
M  V30 1167 1 1114 1123
M  V30 1168 1 1114 1285
M  V30 1169 1 1115 1129
M  V30 1170 1 1115 1298
M  V30 1171 1 1116 1121
M  V30 1172 1 1116 1293
M  V30 1173 1 1117 1136
M  V30 1174 1 1117 1289
M  V30 1175 1 1118 1134
M  V30 1176 1 1118 1294
M  V30 1177 1 1119 1139
M  V30 1178 1 1119 1299
M  V30 1179 1 1120 1140
M  V30 1180 1 1120 1300
M  V30 1181 1 1121 1146
M  V30 1182 1 1121 1194
M  V30 1183 1 1121 1307
M  V30 1184 1 1122 1156
M  V30 1185 1 1122 1184
M  V30 1186 1 1122 1303
M  V30 1187 1 1123 1151
M  V30 1188 1 1123 1197
M  V30 1189 1 1123 1308
M  V30 1190 1 1124 1143
M  V30 1191 1 1124 1181
M  V30 1192 1 1124 1314
M  V30 1193 1 1125 1144
M  V30 1194 1 1125 1183
M  V30 1195 1 1125 1319
M  V30 1196 1 1126 1147
M  V30 1197 1 1126 1188
M  V30 1198 1 1126 1310
M  V30 1199 1 1127 1142
M  V30 1200 1 1127 1182
M  V30 1201 1 1127 1302
M  V30 1202 1 1128 1157
M  V30 1203 1 1128 1196
M  V30 1204 1 1128 1311
M  V30 1205 1 1129 1149
M  V30 1206 1 1129 1193
M  V30 1207 1 1129 1315
M  V30 1208 1 1130 1152
M  V30 1209 1 1130 1189
M  V30 1210 1 1130 1312
M  V30 1211 1 1131 1153
M  V30 1212 1 1131 1191
M  V30 1213 1 1131 1313
M  V30 1214 1 1132 1150
M  V30 1215 1 1132 1186
M  V30 1216 1 1132 1305
M  V30 1217 1 1133 1141
M  V30 1218 1 1133 1190
M  V30 1219 1 1133 1317
M  V30 1220 1 1134 1154
M  V30 1221 1 1134 1185
M  V30 1222 1 1134 1301
M  V30 1223 1 1135 1148
M  V30 1224 1 1135 1195
M  V30 1225 1 1135 1304
M  V30 1226 1 1136 1145
M  V30 1227 1 1136 1198
M  V30 1228 1 1136 1309
M  V30 1229 1 1137 1155
M  V30 1230 1 1137 1187
M  V30 1231 1 1137 1306
M  V30 1232 1 1138 1158
M  V30 1233 1 1138 1200
M  V30 1234 1 1138 1316
M  V30 1235 1 1139 1159
M  V30 1236 1 1139 1192
M  V30 1237 1 1139 1318
M  V30 1238 1 1140 1160
M  V30 1239 1 1140 1199
M  V30 1240 1 1140 1320
M  V30 1241 2 1141 1172
M  V30 1242 1 1141 1548
M  V30 1243 2 1142 1174
M  V30 1244 1 1142 1543
M  V30 1245 2 1143 1161
M  V30 1246 1 1143 1542
M  V30 1247 2 1144 1165
M  V30 1248 1 1144 1544
M  V30 1249 2 1145 1175
M  V30 1250 1 1145 1559
M  V30 1251 2 1146 1163
M  V30 1252 1 1146 1546
M  V30 1253 2 1147 1166
M  V30 1254 1 1147 1550
M  V30 1255 2 1148 1171
M  V30 1256 1 1148 1555
M  V30 1257 2 1149 1168
M  V30 1258 1 1149 1549
M  V30 1259 2 1150 1167
M  V30 1260 1 1150 1551
M  V30 1261 2 1151 1173
M  V30 1262 1 1151 1547
M  V30 1263 2 1152 1170
M  V30 1264 1 1152 1554
M  V30 1265 2 1153 1177
M  V30 1266 1 1153 1556
M  V30 1267 2 1154 1162
M  V30 1268 1 1154 1553
M  V30 1269 2 1155 1164
M  V30 1270 1 1155 1541
M  V30 1271 2 1156 1176
M  V30 1272 1 1156 1558
M  V30 1273 2 1157 1169
M  V30 1274 1 1157 1552
M  V30 1275 2 1158 1179
M  V30 1276 1 1158 1545
M  V30 1277 2 1159 1178
M  V30 1278 1 1159 1557
M  V30 1279 2 1160 1180
M  V30 1280 1 1160 1560
M  V30 1281 1 1181 1201
M  V30 1282 1 1181 1321
M  V30 1283 1 1181 1341
M  V30 1284 1 1182 1202
M  V30 1285 1 1182 1334
M  V30 1286 1 1182 1353
M  V30 1287 1 1183 1209
M  V30 1288 1 1183 1328
M  V30 1289 1 1183 1347
M  V30 1290 1 1184 1206
M  V30 1291 1 1184 1323
M  V30 1292 1 1184 1358
M  V30 1293 1 1185 1204
M  V30 1294 1 1185 1333
M  V30 1295 1 1185 1345
M  V30 1296 1 1186 1215
M  V30 1297 1 1186 1330
M  V30 1298 1 1186 1342
M  V30 1299 1 1187 1210
M  V30 1300 1 1187 1336
M  V30 1301 1 1187 1344
M  V30 1302 1 1188 1207
M  V30 1303 1 1188 1329
M  V30 1304 1 1188 1356
M  V30 1305 1 1189 1216
M  V30 1306 1 1189 1331
M  V30 1307 1 1189 1349
M  V30 1308 1 1190 1212
M  V30 1309 1 1190 1324
M  V30 1310 1 1190 1350
M  V30 1311 1 1191 1217
M  V30 1312 1 1191 1338
M  V30 1313 1 1191 1355
M  V30 1314 1 1192 1219
M  V30 1315 1 1192 1339
M  V30 1316 1 1192 1357
M  V30 1317 1 1193 1208
M  V30 1318 1 1193 1325
M  V30 1319 1 1193 1348
M  V30 1320 1 1194 1205
M  V30 1321 1 1194 1326
M  V30 1322 1 1194 1360
M  V30 1323 1 1195 1218
M  V30 1324 1 1195 1335
M  V30 1325 1 1195 1352
M  V30 1326 1 1196 1213
M  V30 1327 1 1196 1337
M  V30 1328 1 1196 1351
M  V30 1329 1 1197 1214
M  V30 1330 1 1197 1327
M  V30 1331 1 1197 1346
M  V30 1332 1 1198 1211
M  V30 1333 1 1198 1332
M  V30 1334 1 1198 1343
M  V30 1335 1 1199 1220
M  V30 1336 1 1199 1340
M  V30 1337 1 1199 1359
M  V30 1338 1 1200 1203
M  V30 1339 1 1200 1322
M  V30 1340 1 1200 1354
M  V30 1341 1 1201 1239
M  V30 1342 1 1201 1361
M  V30 1343 1 1201 1397
M  V30 1344 1 1202 1224
M  V30 1345 1 1202 1363
M  V30 1346 1 1202 1383
M  V30 1347 1 1203 1225
M  V30 1348 1 1203 1362
M  V30 1349 1 1203 1396
M  V30 1350 1 1204 1231
M  V30 1351 1 1204 1374
M  V30 1352 1 1204 1381
M  V30 1353 1 1205 1228
M  V30 1354 1 1205 1373
M  V30 1355 1 1205 1394
M  V30 1356 1 1206 1234
M  V30 1357 1 1206 1377
M  V30 1358 1 1206 1395
M  V30 1359 1 1207 1227
M  V30 1360 1 1207 1368
M  V30 1361 1 1207 1389
M  V30 1362 1 1208 1226
M  V30 1363 1 1208 1369
M  V30 1364 1 1208 1386
M  V30 1365 1 1209 1236
M  V30 1366 1 1209 1366
M  V30 1367 1 1209 1387
M  V30 1368 1 1210 1221
M  V30 1369 1 1210 1364
M  V30 1370 1 1210 1385
M  V30 1371 1 1211 1222
M  V30 1372 1 1211 1372
M  V30 1373 1 1211 1382
M  V30 1374 1 1212 1223
M  V30 1375 1 1212 1367
M  V30 1376 1 1212 1390
M  V30 1377 1 1213 1232
M  V30 1378 1 1213 1370
M  V30 1379 1 1213 1391
M  V30 1380 1 1214 1229
M  V30 1381 1 1214 1365
M  V30 1382 1 1214 1384
M  V30 1383 1 1215 1230
M  V30 1384 1 1215 1378
M  V30 1385 1 1215 1388
M  V30 1386 1 1216 1233
M  V30 1387 1 1216 1371
M  V30 1388 1 1216 1392
M  V30 1389 1 1217 1235
M  V30 1390 1 1217 1376
M  V30 1391 1 1217 1393
M  V30 1392 1 1218 1237
M  V30 1393 1 1218 1375
M  V30 1394 1 1218 1399
M  V30 1395 1 1219 1238
M  V30 1396 1 1219 1379
M  V30 1397 1 1219 1398
M  V30 1398 1 1220 1240
M  V30 1399 1 1220 1380
M  V30 1400 1 1220 1400
M  V30 1401 1 1221 1244
M  V30 1402 1 1221 1404
M  V30 1403 1 1221 1424
M  V30 1404 1 1222 1245
M  V30 1405 1 1222 1406
M  V30 1406 1 1222 1425
M  V30 1407 1 1223 1243
M  V30 1408 1 1223 1412
M  V30 1409 1 1223 1428
M  V30 1410 1 1224 1242
M  V30 1411 1 1224 1414
M  V30 1412 1 1224 1423
M  V30 1413 1 1225 1260
M  V30 1414 1 1225 1402
M  V30 1415 1 1225 1422
M  V30 1416 1 1226 1254
M  V30 1417 1 1226 1409
M  V30 1418 1 1226 1433
M  V30 1419 1 1227 1249
M  V30 1420 1 1227 1410
M  V30 1421 1 1227 1439
M  V30 1422 1 1228 1246
M  V30 1423 1 1228 1407
M  V30 1424 1 1228 1427
M  V30 1425 1 1229 1247
M  V30 1426 1 1229 1408
M  V30 1427 1 1229 1426
M  V30 1428 1 1230 1250
M  V30 1429 1 1230 1405
M  V30 1430 1 1230 1429
M  V30 1431 1 1231 1253
M  V30 1432 1 1231 1413
M  V30 1433 1 1231 1436
M  V30 1434 1 1232 1251
M  V30 1435 1 1232 1415
M  V30 1436 1 1232 1430
M  V30 1437 1 1233 1252
M  V30 1438 1 1233 1416
M  V30 1439 1 1233 1432
M  V30 1440 1 1234 1257
M  V30 1441 1 1234 1403
M  V30 1442 1 1234 1431
M  V30 1443 1 1235 1255
M  V30 1444 1 1235 1418
M  V30 1445 1 1235 1438
M  V30 1446 1 1236 1248
M  V30 1447 1 1236 1411
M  V30 1448 1 1236 1437
M  V30 1449 1 1237 1256
M  V30 1450 1 1237 1417
M  V30 1451 1 1237 1435
M  V30 1452 1 1238 1258
M  V30 1453 1 1238 1419
M  V30 1454 1 1238 1434
M  V30 1455 1 1239 1241
M  V30 1456 1 1239 1401
M  V30 1457 1 1239 1421
M  V30 1458 1 1240 1259
M  V30 1459 1 1240 1420
M  V30 1460 1 1240 1440
M  V30 1461 1 1241 1261
M  V30 1462 1 1241 1441
M  V30 1463 1 1241 1464
M  V30 1464 1 1242 1274
M  V30 1465 1 1242 1443
M  V30 1466 1 1242 1463
M  V30 1467 1 1243 1272
M  V30 1468 1 1243 1448
M  V30 1469 1 1243 1469
M  V30 1470 1 1244 1264
M  V30 1471 1 1244 1444
M  V30 1472 1 1244 1461
M  V30 1473 1 1245 1275
M  V30 1474 1 1245 1450
M  V30 1475 1 1245 1462
M  V30 1476 1 1246 1263
M  V30 1477 1 1246 1445
M  V30 1478 1 1246 1465
M  V30 1479 1 1247 1266
M  V30 1480 1 1247 1446
M  V30 1481 1 1247 1468
M  V30 1482 1 1248 1277
M  V30 1483 1 1248 1447
M  V30 1484 1 1248 1467
M  V30 1485 1 1249 1279
M  V30 1486 1 1249 1452
M  V30 1487 1 1249 1470
M  V30 1488 1 1250 1268
M  V30 1489 1 1250 1457
M  V30 1490 1 1250 1475
M  V30 1491 1 1251 1278
M  V30 1492 1 1251 1451
M  V30 1493 1 1251 1471
M  V30 1494 1 1252 1269
M  V30 1495 1 1252 1455
M  V30 1496 1 1252 1472
M  V30 1497 1 1253 1265
M  V30 1498 1 1253 1453
M  V30 1499 1 1253 1479
M  V30 1500 1 1254 1276
M  V30 1501 1 1254 1449
M  V30 1502 1 1254 1477
M  V30 1503 1 1255 1270
M  V30 1504 1 1255 1458
M  V30 1505 1 1255 1474
M  V30 1506 1 1256 1271
M  V30 1507 1 1256 1456
M  V30 1508 1 1256 1473
M  V30 1509 1 1257 1262
M  V30 1510 1 1257 1442
M  V30 1511 1 1257 1466
M  V30 1512 1 1258 1267
M  V30 1513 1 1258 1459
M  V30 1514 1 1258 1478
M  V30 1515 1 1259 1280
M  V30 1516 1 1259 1460
M  V30 1517 1 1259 1480
M  V30 1518 1 1260 1273
M  V30 1519 1 1260 1454
M  V30 1520 1 1260 1476
M  V30 1521 1 1261 1481
M  V30 1522 1 1261 1501
M  V30 1523 1 1261 1521
M  V30 1524 1 1262 1496
M  V30 1525 1 1262 1507
M  V30 1526 1 1262 1523
M  V30 1527 1 1263 1493
M  V30 1528 1 1263 1514
M  V30 1529 1 1263 1527
M  V30 1530 1 1264 1484
M  V30 1531 1 1264 1516
M  V30 1532 1 1264 1522
M  V30 1533 1 1265 1499
M  V30 1534 1 1265 1518
M  V30 1535 1 1265 1525
M  V30 1536 1 1266 1485
M  V30 1537 1 1266 1513
M  V30 1538 1 1266 1528
M  V30 1539 1 1267 1498
M  V30 1540 1 1267 1517
M  V30 1541 1 1267 1539
M  V30 1542 1 1268 1488
M  V30 1543 1 1268 1508
M  V30 1544 1 1268 1532
M  V30 1545 1 1269 1491
M  V30 1546 1 1269 1511
M  V30 1547 1 1269 1534
M  V30 1548 1 1270 1495
M  V30 1549 1 1270 1515
M  V30 1550 1 1270 1538
M  V30 1551 1 1271 1492
M  V30 1552 1 1271 1512
M  V30 1553 1 1271 1536
M  V30 1554 1 1272 1487
M  V30 1555 1 1272 1505
M  V30 1556 1 1272 1530
M  V30 1557 1 1273 1494
M  V30 1558 1 1273 1502
M  V30 1559 1 1273 1526
M  V30 1560 1 1274 1482
M  V30 1561 1 1274 1503
M  V30 1562 1 1274 1524
M  V30 1563 1 1275 1483
M  V30 1564 1 1275 1510
M  V30 1565 1 1275 1535
M  V30 1566 1 1276 1490
M  V30 1567 1 1276 1506
M  V30 1568 1 1276 1537
M  V30 1569 1 1277 1486
M  V30 1570 1 1277 1504
M  V30 1571 1 1277 1529
M  V30 1572 1 1278 1497
M  V30 1573 1 1278 1520
M  V30 1574 1 1278 1533
M  V30 1575 1 1279 1489
M  V30 1576 1 1279 1509
M  V30 1577 1 1279 1531
M  V30 1578 1 1280 1500
M  V30 1579 1 1280 1519
M  V30 1580 1 1280 1540
M  V30 1581 1 1541 1578
M  V30 1582 1 1541 1762
M  V30 1583 1 1542 1561
M  V30 1584 1 1542 1761
M  V30 1585 1 1543 1563
M  V30 1586 1 1543 1764
M  V30 1587 1 1544 1574
M  V30 1588 1 1544 1768
M  V30 1589 1 1545 1566
M  V30 1590 1 1545 1771
M  V30 1591 1 1546 1565
M  V30 1592 1 1546 1766
M  V30 1593 1 1547 1567
M  V30 1594 1 1547 1767
M  V30 1595 1 1548 1568
M  V30 1596 1 1548 1769
M  V30 1597 1 1549 1570
M  V30 1598 1 1549 1772
M  V30 1599 1 1550 1569
M  V30 1600 1 1550 1770
M  V30 1601 1 1551 1571
M  V30 1602 1 1551 1774
M  V30 1603 1 1552 1572
M  V30 1604 1 1552 1775
M  V30 1605 1 1553 1564
M  V30 1606 1 1553 1765
M  V30 1607 1 1554 1573
M  V30 1608 1 1554 1776
M  V30 1609 1 1555 1575
M  V30 1610 1 1555 1777
M  V30 1611 1 1556 1577
M  V30 1612 1 1556 1779
M  V30 1613 1 1557 1579
M  V30 1614 1 1557 1778
M  V30 1615 1 1558 1562
M  V30 1616 1 1558 1763
M  V30 1617 1 1559 1576
M  V30 1618 1 1559 1773
M  V30 1619 1 1560 1580
M  V30 1620 1 1560 1780
M  V30 1621 1 1561 1581
M  V30 1622 1 1561 1639
M  V30 1623 1 1561 1781
M  V30 1624 1 1562 1594
M  V30 1625 1 1562 1622
M  V30 1626 1 1562 1785
M  V30 1627 1 1563 1582
M  V30 1628 1 1563 1623
M  V30 1629 1 1563 1787
M  V30 1630 1 1564 1584
M  V30 1631 1 1564 1630
M  V30 1632 1 1564 1782
M  V30 1633 1 1565 1599
M  V30 1634 1 1565 1624
M  V30 1635 1 1565 1788
M  V30 1636 1 1566 1585
M  V30 1637 1 1566 1627
M  V30 1638 1 1566 1792
M  V30 1639 1 1567 1586
M  V30 1640 1 1567 1625
M  V30 1641 1 1567 1789
M  V30 1642 1 1568 1587
M  V30 1643 1 1568 1628
M  V30 1644 1 1568 1790
M  V30 1645 1 1569 1589
M  V30 1646 1 1569 1629
M  V30 1647 1 1569 1791
M  V30 1648 1 1570 1588
M  V30 1649 1 1570 1631
M  V30 1650 1 1570 1793
M  V30 1651 1 1571 1590
M  V30 1652 1 1571 1632
M  V30 1653 1 1571 1794
M  V30 1654 1 1572 1591
M  V30 1655 1 1572 1633
M  V30 1656 1 1572 1795
M  V30 1657 1 1573 1592
M  V30 1658 1 1573 1635
M  V30 1659 1 1573 1796
M  V30 1660 1 1574 1583
M  V30 1661 1 1574 1621
M  V30 1662 1 1574 1783
M  V30 1663 1 1575 1595
M  V30 1664 1 1575 1626
M  V30 1665 1 1575 1797
M  V30 1666 1 1576 1596
M  V30 1667 1 1576 1634
M  V30 1668 1 1576 1786
M  V30 1669 1 1577 1597
M  V30 1670 1 1577 1636
M  V30 1671 1 1577 1799
M  V30 1672 1 1578 1598
M  V30 1673 1 1578 1638
M  V30 1674 1 1578 1784
M  V30 1675 1 1579 1593
M  V30 1676 1 1579 1637
M  V30 1677 1 1579 1798
M  V30 1678 1 1580 1600
M  V30 1679 1 1580 1640
M  V30 1680 1 1580 1800
M  V30 1681 2 1581 1601
M  V30 1682 1 1581 1944
M  V30 1683 2 1582 1604
M  V30 1684 1 1582 1945
M  V30 1685 2 1583 1609
M  V30 1686 1 1583 1941
M  V30 1687 2 1584 1605
M  V30 1688 1 1584 1943
M  V30 1689 2 1585 1607
M  V30 1690 1 1585 1951
M  V30 1691 2 1586 1608
M  V30 1692 1 1586 1947
M  V30 1693 2 1587 1610
M  V30 1694 1 1587 1948
M  V30 1695 2 1588 1612
M  V30 1696 1 1588 1950
M  V30 1697 2 1589 1611
M  V30 1698 1 1589 1949
M  V30 1699 2 1590 1614
M  V30 1700 1 1590 1952
M  V30 1701 2 1591 1615
M  V30 1702 1 1591 1953
M  V30 1703 2 1592 1616
M  V30 1704 1 1592 1954
M  V30 1705 2 1593 1619
M  V30 1706 1 1593 1956
M  V30 1707 2 1594 1603
M  V30 1708 1 1594 1942
M  V30 1709 2 1595 1617
M  V30 1710 1 1595 1955
M  V30 1711 2 1596 1613
M  V30 1712 1 1596 1957
M  V30 1713 2 1597 1618
M  V30 1714 1 1597 1959
M  V30 1715 2 1598 1602
M  V30 1716 1 1598 1958
M  V30 1717 2 1599 1606
M  V30 1718 1 1599 1946
M  V30 1719 2 1600 1620
M  V30 1720 1 1600 1960
M  V30 1721 1 1621 1648
M  V30 1722 1 1621 1807
M  V30 1723 1 1621 1828
M  V30 1724 1 1622 1643
M  V30 1725 1 1622 1802
M  V30 1726 1 1622 1821
M  V30 1727 1 1623 1644
M  V30 1728 1 1623 1803
M  V30 1729 1 1623 1823
M  V30 1730 1 1624 1645
M  V30 1731 1 1624 1805
M  V30 1732 1 1624 1825
M  V30 1733 1 1625 1646
M  V30 1734 1 1625 1806
M  V30 1735 1 1625 1826
M  V30 1736 1 1626 1656
M  V30 1737 1 1626 1816
M  V30 1738 1 1626 1835
M  V30 1739 1 1627 1647
M  V30 1740 1 1627 1810
M  V30 1741 1 1627 1830
M  V30 1742 1 1628 1649
M  V30 1743 1 1628 1808
M  V30 1744 1 1628 1827
M  V30 1745 1 1629 1650
M  V30 1746 1 1629 1809
M  V30 1747 1 1629 1839
M  V30 1748 1 1630 1654
M  V30 1749 1 1630 1804
M  V30 1750 1 1630 1824
M  V30 1751 1 1631 1651
M  V30 1752 1 1631 1811
M  V30 1753 1 1631 1829
M  V30 1754 1 1632 1652
M  V30 1755 1 1632 1812
M  V30 1756 1 1632 1831
M  V30 1757 1 1633 1653
M  V30 1758 1 1633 1813
M  V30 1759 1 1633 1832
M  V30 1760 1 1634 1658
M  V30 1761 1 1634 1814
M  V30 1762 1 1634 1834
M  V30 1763 1 1635 1655
M  V30 1764 1 1635 1815
M  V30 1765 1 1635 1833
M  V30 1766 1 1636 1657
M  V30 1767 1 1636 1819
M  V30 1768 1 1636 1837
M  V30 1769 1 1637 1659
M  V30 1770 1 1637 1817
M  V30 1771 1 1637 1836
M  V30 1772 1 1638 1642
M  V30 1773 1 1638 1818
M  V30 1774 1 1638 1822
M  V30 1775 1 1639 1641
M  V30 1776 1 1639 1801
M  V30 1777 1 1639 1838
M  V30 1778 1 1640 1660
M  V30 1779 1 1640 1820
M  V30 1780 1 1640 1840
M  V30 1781 2 1641 1661
M  V30 1782 1 1641 1681
M  V30 1783 2 1642 1678
M  V30 1784 1 1642 1682
M  V30 1785 2 1643 1662
M  V30 1786 1 1643 1683
M  V30 1787 2 1644 1663
M  V30 1788 1 1644 1684
M  V30 1789 2 1645 1674
M  V30 1790 1 1645 1687
M  V30 1791 2 1646 1666
M  V30 1792 1 1646 1688
M  V30 1793 2 1647 1665
M  V30 1794 1 1647 1699
M  V30 1795 2 1648 1667
M  V30 1796 1 1648 1689
M  V30 1797 2 1649 1669
M  V30 1798 1 1649 1690
M  V30 1799 2 1650 1677
M  V30 1800 1 1650 1691
M  V30 1801 2 1651 1671
M  V30 1802 1 1651 1692
M  V30 1803 2 1652 1672
M  V30 1804 1 1652 1693
M  V30 1805 2 1653 1673
M  V30 1806 1 1653 1694
M  V30 1807 2 1654 1664
M  V30 1808 1 1654 1685
M  V30 1809 2 1655 1675
M  V30 1810 1 1655 1695
M  V30 1811 2 1656 1676
M  V30 1812 1 1656 1696
M  V30 1813 2 1657 1679
M  V30 1814 1 1657 1697
M  V30 1815 2 1658 1668
M  V30 1816 1 1658 1686
M  V30 1817 2 1659 1670
M  V30 1818 1 1659 1698
M  V30 1819 2 1660 1680
M  V30 1820 1 1660 1700
M  V30 1821 1 1661 1718
M  V30 1822 1 1661 1841
M  V30 1823 1 1662 1715
M  V30 1824 1 1662 1843
M  V30 1825 1 1663 1703
M  V30 1826 1 1663 1844
M  V30 1827 1 1664 1701
M  V30 1828 1 1664 1845
M  V30 1829 1 1665 1706
M  V30 1830 1 1665 1852
M  V30 1831 1 1666 1705
M  V30 1832 1 1666 1847
M  V30 1833 1 1667 1719
M  V30 1834 1 1667 1848
M  V30 1835 1 1668 1710
M  V30 1836 1 1668 1853
M  V30 1837 1 1669 1707
M  V30 1838 1 1669 1849
M  V30 1839 1 1670 1717
M  V30 1840 1 1670 1858
M  V30 1841 1 1671 1709
M  V30 1842 1 1671 1851
M  V30 1843 1 1672 1711
M  V30 1844 1 1672 1854
M  V30 1845 1 1673 1712
M  V30 1846 1 1673 1855
M  V30 1847 1 1674 1704
M  V30 1848 1 1674 1846
M  V30 1849 1 1675 1713
M  V30 1850 1 1675 1856
M  V30 1851 1 1676 1714
M  V30 1852 1 1676 1857
M  V30 1853 1 1677 1708
M  V30 1854 1 1677 1850
M  V30 1855 1 1678 1702
M  V30 1856 1 1678 1842
M  V30 1857 1 1679 1716
M  V30 1858 1 1679 1859
M  V30 1859 1 1680 1720
M  V30 1860 1 1680 1860
M  V30 1861 2 1681 1721
M  V30 1862 1 1681 1861
M  V30 1863 2 1682 1738
M  V30 1864 1 1682 1878
M  V30 1865 2 1683 1722
M  V30 1866 1 1683 1862
M  V30 1867 2 1684 1723
M  V30 1868 1 1684 1863
M  V30 1869 2 1685 1724
M  V30 1870 1 1685 1877
M  V30 1871 2 1686 1725
M  V30 1872 1 1686 1864
M  V30 1873 2 1687 1734
M  V30 1874 1 1687 1866
M  V30 1875 2 1688 1726
M  V30 1876 1 1688 1867
M  V30 1877 2 1689 1736
M  V30 1878 1 1689 1870
M  V30 1879 2 1690 1728
M  V30 1880 1 1690 1868
M  V30 1881 2 1691 1729
M  V30 1882 1 1691 1875
M  V30 1883 2 1692 1730
M  V30 1884 1 1692 1869
M  V30 1885 2 1693 1731
M  V30 1886 1 1693 1871
M  V30 1887 2 1694 1732
M  V30 1888 1 1694 1872
M  V30 1889 2 1695 1733
M  V30 1890 1 1695 1873
M  V30 1891 2 1696 1735
M  V30 1892 1 1696 1874
M  V30 1893 2 1697 1737
M  V30 1894 1 1697 1879
M  V30 1895 2 1698 1739
M  V30 1896 1 1698 1876
M  V30 1897 2 1699 1727
M  V30 1898 1 1699 1865
M  V30 1899 2 1700 1740
M  V30 1900 1 1700 1880
M  V30 1901 2 1701 1744
M  V30 1902 1 1701 1894
M  V30 1903 2 1702 1742
M  V30 1904 1 1702 1898
M  V30 1905 2 1703 1743
M  V30 1906 1 1703 1884
M  V30 1907 2 1704 1746
M  V30 1908 1 1704 1885
M  V30 1909 2 1705 1754
M  V30 1910 1 1705 1886
M  V30 1911 2 1706 1749
M  V30 1912 1 1706 1891
M  V30 1913 2 1707 1748
M  V30 1914 1 1707 1888
M  V30 1915 2 1708 1758
M  V30 1916 1 1708 1889
M  V30 1917 2 1709 1750
M  V30 1918 1 1709 1890
M  V30 1919 2 1710 1747
M  V30 1920 1 1710 1883
M  V30 1921 2 1711 1751
M  V30 1922 1 1711 1892
M  V30 1923 2 1712 1752
M  V30 1924 1 1712 1893
M  V30 1925 2 1713 1753
M  V30 1926 1 1713 1895
M  V30 1927 2 1714 1756
M  V30 1928 1 1714 1896
M  V30 1929 2 1715 1759
M  V30 1930 1 1715 1882
M  V30 1931 2 1716 1757
M  V30 1932 1 1716 1899
M  V30 1933 2 1717 1745
M  V30 1934 1 1717 1897
M  V30 1935 2 1718 1741
M  V30 1936 1 1718 1881
M  V30 1937 2 1719 1755
M  V30 1938 1 1719 1887
M  V30 1939 2 1720 1760
M  V30 1940 1 1720 1900
M  V30 1941 1 1721 1741
M  V30 1942 1 1721 1901
M  V30 1943 1 1722 1759
M  V30 1944 1 1722 1909
M  V30 1945 1 1723 1743
M  V30 1946 1 1723 1903
M  V30 1947 1 1724 1744
M  V30 1948 1 1724 1904
M  V30 1949 1 1725 1747
M  V30 1950 1 1725 1910
M  V30 1951 1 1726 1754
M  V30 1952 1 1726 1914
M  V30 1953 1 1727 1749
M  V30 1954 1 1727 1911
M  V30 1955 1 1728 1748
M  V30 1956 1 1728 1907
M  V30 1957 1 1729 1758
M  V30 1958 1 1729 1906
M  V30 1959 1 1730 1750
M  V30 1960 1 1730 1908
M  V30 1961 1 1731 1751
M  V30 1962 1 1731 1912
M  V30 1963 1 1732 1752
M  V30 1964 1 1732 1913
M  V30 1965 1 1733 1753
M  V30 1966 1 1733 1915
M  V30 1967 1 1734 1746
M  V30 1968 1 1734 1902
M  V30 1969 1 1735 1756
M  V30 1970 1 1735 1916
M  V30 1971 1 1736 1755
M  V30 1972 1 1736 1905
M  V30 1973 1 1737 1757
M  V30 1974 1 1737 1919
M  V30 1975 1 1738 1742
M  V30 1976 1 1738 1918
M  V30 1977 1 1739 1745
M  V30 1978 1 1739 1917
M  V30 1979 1 1740 1760
M  V30 1980 1 1740 1920
M  V30 1981 1 1741 1921
M  V30 1982 1 1742 1922
M  V30 1983 1 1743 1924
M  V30 1984 1 1744 1925
M  V30 1985 1 1745 1938
M  V30 1986 1 1746 1926
M  V30 1987 1 1747 1932
M  V30 1988 1 1748 1929
M  V30 1989 1 1749 1933
M  V30 1990 1 1750 1931
M  V30 1991 1 1751 1934
M  V30 1992 1 1752 1935
M  V30 1993 1 1753 1936
M  V30 1994 1 1754 1927
M  V30 1995 1 1755 1928
M  V30 1996 1 1756 1937
M  V30 1997 1 1757 1939
M  V30 1998 1 1758 1930
M  V30 1999 1 1759 1923
M  V30 2000 1 1760 1940
M  V30 2001 1 1941 1966
M  V30 2002 1 1941 2130
M  V30 2003 1 1942 1962
M  V30 2004 1 1942 2123
M  V30 2005 1 1943 1964
M  V30 2006 1 1943 2126
M  V30 2007 1 1944 1961
M  V30 2008 1 1944 2122
M  V30 2009 1 1945 1963
M  V30 2010 1 1945 2125
M  V30 2011 1 1946 1974
M  V30 2012 1 1946 2127
M  V30 2013 1 1947 1965
M  V30 2014 1 1947 2129
M  V30 2015 1 1948 1967
M  V30 2016 1 1948 2132
M  V30 2017 1 1949 1968
M  V30 2018 1 1949 2131
M  V30 2019 1 1950 1969
M  V30 2020 1 1950 2133
M  V30 2021 1 1951 1970
M  V30 2022 1 1951 2136
M  V30 2023 1 1952 1971
M  V30 2024 1 1952 2135
M  V30 2025 1 1953 1972
M  V30 2026 1 1953 2134
M  V30 2027 1 1954 1973
M  V30 2028 1 1954 2137
M  V30 2029 1 1955 1975
M  V30 2030 1 1955 2139
M  V30 2031 1 1956 1977
M  V30 2032 1 1956 2140
M  V30 2033 1 1957 1976
M  V30 2034 1 1957 2128
M  V30 2035 1 1958 1978
M  V30 2036 1 1958 2124
M  V30 2037 1 1959 1979
M  V30 2038 1 1959 2138
M  V30 2039 1 1960 1980
M  V30 2040 1 1960 2121
M  V30 2041 1 1961 1998
M  V30 2042 1 1961 2022
M  V30 2043 1 1961 2142
M  V30 2044 1 1962 1982
M  V30 2045 1 1962 2026
M  V30 2046 1 1962 2143
M  V30 2047 1 1963 1984
M  V30 2048 1 1963 2025
M  V30 2049 1 1963 2145
M  V30 2050 1 1964 1994
M  V30 2051 1 1964 2032
M  V30 2052 1 1964 2147
M  V30 2053 1 1965 1985
M  V30 2054 1 1965 2028
M  V30 2055 1 1965 2150
M  V30 2056 1 1966 1986
M  V30 2057 1 1966 2023
M  V30 2058 1 1966 2153
M  V30 2059 1 1967 1987
M  V30 2060 1 1967 2030
M  V30 2061 1 1967 2148
M  V30 2062 1 1968 1989
M  V30 2063 1 1968 2029
M  V30 2064 1 1968 2146
M  V30 2065 1 1969 1988
M  V30 2066 1 1969 2031
M  V30 2067 1 1969 2152
M  V30 2068 1 1970 1990
M  V30 2069 1 1970 2035
M  V30 2070 1 1970 2156
M  V30 2071 1 1971 1991
M  V30 2072 1 1971 2033
M  V30 2073 1 1971 2155
M  V30 2074 1 1972 1992
M  V30 2075 1 1972 2034
M  V30 2076 1 1972 2154
M  V30 2077 1 1973 1993
M  V30 2078 1 1973 2037
M  V30 2079 1 1973 2157
M  V30 2080 1 1974 1999
M  V30 2081 1 1974 2027
M  V30 2082 1 1974 2149
M  V30 2083 1 1975 1995
M  V30 2084 1 1975 2039
M  V30 2085 1 1975 2159
M  V30 2086 1 1976 1996
M  V30 2087 1 1976 2036
M  V30 2088 1 1976 2151
M  V30 2089 1 1977 1997
M  V30 2090 1 1977 2040
M  V30 2091 1 1977 2160
M  V30 2092 1 1978 1983
M  V30 2093 1 1978 2024
M  V30 2094 1 1978 2144
M  V30 2095 1 1979 2000
M  V30 2096 1 1979 2021
M  V30 2097 1 1979 2158
M  V30 2098 1 1980 1981
M  V30 2099 1 1980 2038
M  V30 2100 1 1980 2141
M  V30 2101 2 1981 2001
M  V30 2102 1 1981 2241
M  V30 2103 2 1982 2004
M  V30 2104 1 1982 2244
M  V30 2105 2 1983 2003
M  V30 2106 1 1983 2245
M  V30 2107 2 1984 2005
M  V30 2108 1 1984 2246
M  V30 2109 2 1985 2008
M  V30 2110 1 1985 2249
M  V30 2111 2 1986 2009
M  V30 2112 1 1986 2250
M  V30 2113 2 1987 2010
M  V30 2114 1 1987 2252
M  V30 2115 2 1988 2012
M  V30 2116 1 1988 2253
M  V30 2117 2 1989 2011
M  V30 2118 1 1989 2251
M  V30 2119 2 1990 2014
M  V30 2120 1 1990 2259
M  V30 2121 2 1991 2015
M  V30 2122 1 1991 2256
M  V30 2123 2 1992 2016
M  V30 2124 1 1992 2255
M  V30 2125 2 1993 2017
M  V30 2126 1 1993 2257
M  V30 2127 2 1994 2006
M  V30 2128 1 1994 2247
M  V30 2129 2 1995 2018
M  V30 2130 1 1995 2258
M  V30 2131 2 1996 2013
M  V30 2132 1 1996 2254
M  V30 2133 2 1997 2019
M  V30 2134 1 1997 2260
M  V30 2135 2 1998 2002
M  V30 2136 1 1998 2242
M  V30 2137 2 1999 2007
M  V30 2138 1 1999 2248
M  V30 2139 2 2000 2020
M  V30 2140 1 2000 2243
M  V30 2141 1 2021 2049
M  V30 2142 1 2021 2162
M  V30 2143 1 2021 2183
M  V30 2144 1 2022 2050
M  V30 2145 1 2022 2163
M  V30 2146 1 2022 2198
M  V30 2147 1 2023 2053
M  V30 2148 1 2023 2170
M  V30 2149 1 2023 2190
M  V30 2150 1 2024 2052
M  V30 2151 1 2024 2165
M  V30 2152 1 2024 2185
M  V30 2153 1 2025 2054
M  V30 2154 1 2025 2166
M  V30 2155 1 2025 2186
M  V30 2156 1 2026 2051
M  V30 2157 1 2026 2164
M  V30 2158 1 2026 2184
M  V30 2159 1 2027 2056
M  V30 2160 1 2027 2168
M  V30 2161 1 2027 2188
M  V30 2162 1 2028 2057
M  V30 2163 1 2028 2169
M  V30 2164 1 2028 2189
M  V30 2165 1 2029 2058
M  V30 2166 1 2029 2171
M  V30 2167 1 2029 2191
M  V30 2168 1 2030 2059
M  V30 2169 1 2030 2172
M  V30 2170 1 2030 2199
M  V30 2171 1 2031 2060
M  V30 2172 1 2031 2173
M  V30 2173 1 2031 2192
M  V30 2174 1 2032 2055
M  V30 2175 1 2032 2167
M  V30 2176 1 2032 2182
M  V30 2177 1 2033 2043
M  V30 2178 1 2033 2176
M  V30 2179 1 2033 2194
M  V30 2180 1 2034 2042
M  V30 2181 1 2034 2175
M  V30 2182 1 2034 2193
M  V30 2183 1 2035 2044
M  V30 2184 1 2035 2177
M  V30 2185 1 2035 2196
M  V30 2186 1 2036 2041
M  V30 2187 1 2036 2174
M  V30 2188 1 2036 2187
M  V30 2189 1 2037 2045
M  V30 2190 1 2037 2178
M  V30 2191 1 2037 2195
M  V30 2192 1 2038 2048
M  V30 2193 1 2038 2161
M  V30 2194 1 2038 2181
M  V30 2195 1 2039 2046
M  V30 2196 1 2039 2179
M  V30 2197 1 2039 2197
M  V30 2198 1 2040 2047
M  V30 2199 1 2040 2180
M  V30 2200 1 2040 2200
M  V30 2201 1 2041 2063
M  V30 2202 1 2041 2213
M  V30 2203 1 2041 2228
M  V30 2204 1 2042 2072
M  V30 2205 1 2042 2214
M  V30 2206 1 2042 2233
M  V30 2207 1 2043 2073
M  V30 2208 1 2043 2215
M  V30 2209 1 2043 2234
M  V30 2210 1 2044 2074
M  V30 2211 1 2044 2217
M  V30 2212 1 2044 2236
M  V30 2213 1 2045 2076
M  V30 2214 1 2045 2216
M  V30 2215 1 2045 2235
M  V30 2216 1 2046 2079
M  V30 2217 1 2046 2219
M  V30 2218 1 2046 2237
M  V30 2219 1 2047 2080
M  V30 2220 1 2047 2220
M  V30 2221 1 2047 2239
M  V30 2222 1 2048 2061
M  V30 2223 1 2048 2201
M  V30 2224 1 2048 2221
M  V30 2225 1 2049 2078
M  V30 2226 1 2049 2202
M  V30 2227 1 2049 2222
M  V30 2228 1 2050 2062
M  V30 2229 1 2050 2218
M  V30 2230 1 2050 2238
M  V30 2231 1 2051 2065
M  V30 2232 1 2051 2203
M  V30 2233 1 2051 2223
M  V30 2234 1 2052 2064
M  V30 2235 1 2052 2204
M  V30 2236 1 2052 2224
M  V30 2237 1 2053 2077
M  V30 2238 1 2053 2209
M  V30 2239 1 2053 2230
M  V30 2240 1 2054 2066
M  V30 2241 1 2054 2205
M  V30 2242 1 2054 2225
M  V30 2243 1 2055 2067
M  V30 2244 1 2055 2206
M  V30 2245 1 2055 2227
M  V30 2246 1 2056 2069
M  V30 2247 1 2056 2207
M  V30 2248 1 2056 2226
M  V30 2249 1 2057 2068
M  V30 2250 1 2057 2208
M  V30 2251 1 2057 2229
M  V30 2252 1 2058 2070
M  V30 2253 1 2058 2210
M  V30 2254 1 2058 2240
M  V30 2255 1 2059 2075
M  V30 2256 1 2059 2211
M  V30 2257 1 2059 2231
M  V30 2258 1 2060 2071
M  V30 2259 1 2060 2212
M  V30 2260 1 2060 2232
M  V30 2261 2 2061 2081
M  V30 2262 1 2061 2101
M  V30 2263 2 2062 2083
M  V30 2264 1 2062 2103
M  V30 2265 2 2063 2094
M  V30 2266 1 2063 2110
M  V30 2267 2 2064 2085
M  V30 2268 1 2064 2105
M  V30 2269 2 2065 2084
M  V30 2270 1 2065 2104
M  V30 2271 2 2066 2086
M  V30 2272 1 2066 2106
M  V30 2273 2 2067 2087
M  V30 2274 1 2067 2118
M  V30 2275 2 2068 2089
M  V30 2276 1 2068 2108
M  V30 2277 2 2069 2088
M  V30 2278 1 2069 2107
M  V30 2279 2 2070 2091
M  V30 2280 1 2070 2109
M  V30 2281 2 2071 2093
M  V30 2282 1 2071 2111
M  V30 2283 2 2072 2095
M  V30 2284 1 2072 2113
M  V30 2285 2 2073 2096
M  V30 2286 1 2073 2114
M  V30 2287 2 2074 2097
M  V30 2288 1 2074 2115
M  V30 2289 2 2075 2092
M  V30 2290 1 2075 2112
M  V30 2291 2 2076 2098
M  V30 2292 1 2076 2116
M  V30 2293 2 2077 2090
M  V30 2294 1 2077 2120
M  V30 2295 2 2078 2082
M  V30 2296 1 2078 2102
M  V30 2297 2 2079 2099
M  V30 2298 1 2079 2117
M  V30 2299 2 2080 2100
M  V30 2300 1 2080 2119
M  V30 2301 1 2241 2261
M  V30 2302 1 2241 2461
M  V30 2303 1 2242 2278
M  V30 2304 1 2242 2478
M  V30 2305 1 2243 2262
M  V30 2306 1 2243 2463
M  V30 2307 1 2244 2263
M  V30 2308 1 2244 2464
M  V30 2309 1 2245 2264
M  V30 2310 1 2245 2465
M  V30 2311 1 2246 2265
M  V30 2312 1 2246 2466
M  V30 2313 1 2247 2280
M  V30 2314 1 2247 2468
M  V30 2315 1 2248 2267
M  V30 2316 1 2248 2469
M  V30 2317 1 2249 2268
M  V30 2318 1 2249 2470
M  V30 2319 1 2250 2272
M  V30 2320 1 2250 2471
M  V30 2321 1 2251 2269
M  V30 2322 1 2251 2467
M  V30 2323 1 2252 2270
M  V30 2324 1 2252 2472
M  V30 2325 1 2253 2271
M  V30 2326 1 2253 2473
M  V30 2327 1 2254 2266
M  V30 2328 1 2254 2462
M  V30 2329 1 2255 2273
M  V30 2330 1 2255 2474
M  V30 2331 1 2256 2274
M  V30 2332 1 2256 2475
M  V30 2333 1 2257 2275
M  V30 2334 1 2257 2476
M  V30 2335 1 2258 2276
M  V30 2336 1 2258 2477
M  V30 2337 1 2259 2277
M  V30 2338 1 2259 2480
M  V30 2339 1 2260 2279
M  V30 2340 1 2260 2479
M  V30 2341 1 2261 2281
M  V30 2342 1 2261 2321
M  V30 2343 1 2261 2481
M  V30 2344 1 2262 2282
M  V30 2345 1 2262 2323
M  V30 2346 1 2262 2483
M  V30 2347 1 2263 2283
M  V30 2348 1 2263 2324
M  V30 2349 1 2263 2484
M  V30 2350 1 2264 2284
M  V30 2351 1 2264 2325
M  V30 2352 1 2264 2485
M  V30 2353 1 2265 2285
M  V30 2354 1 2265 2326
M  V30 2355 1 2265 2486
M  V30 2356 1 2266 2287
M  V30 2357 1 2266 2338
M  V30 2358 1 2266 2494
M  V30 2359 1 2267 2288
M  V30 2360 1 2267 2328
M  V30 2361 1 2267 2488
M  V30 2362 1 2268 2289
M  V30 2363 1 2268 2329
M  V30 2364 1 2268 2489
M  V30 2365 1 2269 2291
M  V30 2366 1 2269 2331
M  V30 2367 1 2269 2491
M  V30 2368 1 2270 2292
M  V30 2369 1 2270 2332
M  V30 2370 1 2270 2492
M  V30 2371 1 2271 2293
M  V30 2372 1 2271 2333
M  V30 2373 1 2271 2493
M  V30 2374 1 2272 2290
M  V30 2375 1 2272 2330
M  V30 2376 1 2272 2490
M  V30 2377 1 2273 2294
M  V30 2378 1 2273 2334
M  V30 2379 1 2273 2495
M  V30 2380 1 2274 2295
M  V30 2381 1 2274 2335
M  V30 2382 1 2274 2496
M  V30 2383 1 2275 2296
M  V30 2384 1 2275 2336
M  V30 2385 1 2275 2497
M  V30 2386 1 2276 2297
M  V30 2387 1 2276 2337
M  V30 2388 1 2276 2498
M  V30 2389 1 2277 2299
M  V30 2390 1 2277 2339
M  V30 2391 1 2277 2500
M  V30 2392 1 2278 2298
M  V30 2393 1 2278 2322
M  V30 2394 1 2278 2482
M  V30 2395 1 2279 2300
M  V30 2396 1 2279 2340
M  V30 2397 1 2279 2499
M  V30 2398 1 2280 2286
M  V30 2399 1 2280 2327
M  V30 2400 1 2280 2487
M  V30 2401 2 2281 2301
M  V30 2402 1 2281 2641
M  V30 2403 2 2282 2302
M  V30 2404 1 2282 2645
M  V30 2405 2 2283 2303
M  V30 2406 1 2283 2644
M  V30 2407 2 2284 2305
M  V30 2408 1 2284 2646
M  V30 2409 2 2285 2306
M  V30 2410 1 2285 2647
M  V30 2411 2 2286 2307
M  V30 2412 1 2286 2648
M  V30 2413 2 2287 2313
M  V30 2414 1 2287 2655
M  V30 2415 2 2288 2304
M  V30 2416 1 2288 2649
M  V30 2417 2 2289 2308
M  V30 2418 1 2289 2650
M  V30 2419 2 2290 2309
M  V30 2420 1 2290 2651
M  V30 2421 2 2291 2310
M  V30 2422 1 2291 2652
M  V30 2423 2 2292 2311
M  V30 2424 1 2292 2653
M  V30 2425 2 2293 2312
M  V30 2426 1 2293 2654
M  V30 2427 2 2294 2314
M  V30 2428 1 2294 2656
M  V30 2429 2 2295 2315
M  V30 2430 1 2295 2657
M  V30 2431 2 2296 2316
M  V30 2432 1 2296 2658
M  V30 2433 2 2297 2317
M  V30 2434 1 2297 2659
M  V30 2435 2 2298 2318
M  V30 2436 1 2298 2642
M  V30 2437 2 2299 2319
M  V30 2438 1 2299 2643
M  V30 2439 2 2300 2320
M  V30 2440 1 2300 2660
M  V30 2441 1 2321 2341
M  V30 2442 1 2321 2501
M  V30 2443 1 2321 2521
M  V30 2444 1 2322 2358
M  V30 2445 1 2322 2518
M  V30 2446 1 2322 2538
M  V30 2447 1 2323 2342
M  V30 2448 1 2323 2502
M  V30 2449 1 2323 2522
M  V30 2450 1 2324 2343
M  V30 2451 1 2324 2503
M  V30 2452 1 2324 2523
M  V30 2453 1 2325 2344
M  V30 2454 1 2325 2504
M  V30 2455 1 2325 2524
M  V30 2456 1 2326 2345
M  V30 2457 1 2326 2505
M  V30 2458 1 2326 2525
M  V30 2459 1 2327 2346
M  V30 2460 1 2327 2506
M  V30 2461 1 2327 2526
M  V30 2462 1 2328 2348
M  V30 2463 1 2328 2507
M  V30 2464 1 2328 2527
M  V30 2465 1 2329 2349
M  V30 2466 1 2329 2508
M  V30 2467 1 2329 2529
M  V30 2468 1 2330 2347
M  V30 2469 1 2330 2519
M  V30 2470 1 2330 2530
M  V30 2471 1 2331 2350
M  V30 2472 1 2331 2509
M  V30 2473 1 2331 2531
M  V30 2474 1 2332 2351
M  V30 2475 1 2332 2511
M  V30 2476 1 2332 2532
M  V30 2477 1 2333 2352
M  V30 2478 1 2333 2512
M  V30 2479 1 2333 2533
M  V30 2480 1 2334 2353
M  V30 2481 1 2334 2513
M  V30 2482 1 2334 2534
M  V30 2483 1 2335 2354
M  V30 2484 1 2335 2514
M  V30 2485 1 2335 2535
M  V30 2486 1 2336 2355
M  V30 2487 1 2336 2515
M  V30 2488 1 2336 2536
M  V30 2489 1 2337 2356
M  V30 2490 1 2337 2516
M  V30 2491 1 2337 2537
M  V30 2492 1 2338 2360
M  V30 2493 1 2338 2510
M  V30 2494 1 2338 2528
M  V30 2495 1 2339 2357
M  V30 2496 1 2339 2520
M  V30 2497 1 2339 2540
M  V30 2498 1 2340 2359
M  V30 2499 1 2340 2517
M  V30 2500 1 2340 2539
M  V30 2501 2 2341 2361
M  V30 2502 1 2341 2381
M  V30 2503 2 2342 2362
M  V30 2504 1 2342 2382
M  V30 2505 2 2343 2363
M  V30 2506 1 2343 2383
M  V30 2507 2 2344 2364
M  V30 2508 1 2344 2384
M  V30 2509 2 2345 2365
M  V30 2510 1 2345 2385
M  V30 2511 2 2346 2366
M  V30 2512 1 2346 2386
M  V30 2513 2 2347 2369
M  V30 2514 1 2347 2388
M  V30 2515 2 2348 2367
M  V30 2516 1 2348 2400
M  V30 2517 2 2349 2368
M  V30 2518 1 2349 2387
M  V30 2519 2 2350 2370
M  V30 2520 1 2350 2389
M  V30 2521 2 2351 2371
M  V30 2522 1 2351 2390
M  V30 2523 2 2352 2372
M  V30 2524 1 2352 2391
M  V30 2525 2 2353 2373
M  V30 2526 1 2353 2392
M  V30 2527 2 2354 2374
M  V30 2528 1 2354 2393
M  V30 2529 2 2355 2375
M  V30 2530 1 2355 2394
M  V30 2531 2 2356 2376
M  V30 2532 1 2356 2395
M  V30 2533 2 2357 2379
M  V30 2534 1 2357 2397
M  V30 2535 2 2358 2378
M  V30 2536 1 2358 2398
M  V30 2537 2 2359 2380
M  V30 2538 1 2359 2399
M  V30 2539 2 2360 2377
M  V30 2540 1 2360 2396
M  V30 2541 1 2361 2401
M  V30 2542 1 2361 2558
M  V30 2543 1 2362 2403
M  V30 2544 1 2362 2543
M  V30 2545 1 2363 2404
M  V30 2546 1 2363 2544
M  V30 2547 1 2364 2405
M  V30 2548 1 2364 2545
M  V30 2549 1 2365 2406
M  V30 2550 1 2365 2547
M  V30 2551 1 2366 2407
M  V30 2552 1 2366 2548
M  V30 2553 1 2367 2408
M  V30 2554 1 2367 2549
M  V30 2555 1 2368 2409
M  V30 2556 1 2368 2550
M  V30 2557 1 2369 2410
M  V30 2558 1 2369 2551
M  V30 2559 1 2370 2411
M  V30 2560 1 2370 2546
M  V30 2561 1 2371 2412
M  V30 2562 1 2371 2553
M  V30 2563 1 2372 2413
M  V30 2564 1 2372 2554
M  V30 2565 1 2373 2415
M  V30 2566 1 2373 2555
M  V30 2567 1 2374 2416
M  V30 2568 1 2374 2556
M  V30 2569 1 2375 2417
M  V30 2570 1 2375 2557
M  V30 2571 1 2376 2418
M  V30 2572 1 2376 2559
M  V30 2573 1 2377 2414
M  V30 2574 1 2377 2552
M  V30 2575 1 2378 2402
M  V30 2576 1 2378 2542
M  V30 2577 1 2379 2419
M  V30 2578 1 2379 2541
M  V30 2579 1 2380 2420
M  V30 2580 1 2380 2560
M  V30 2581 2 2381 2421
M  V30 2582 1 2381 2562
M  V30 2583 2 2382 2423
M  V30 2584 1 2382 2564
M  V30 2585 2 2383 2424
M  V30 2586 1 2383 2565
M  V30 2587 2 2384 2425
M  V30 2588 1 2384 2566
M  V30 2589 2 2385 2426
M  V30 2590 1 2385 2567
M  V30 2591 2 2386 2427
M  V30 2592 1 2386 2568
M  V30 2593 2 2387 2429
M  V30 2594 1 2387 2570
M  V30 2595 2 2388 2422
M  V30 2596 1 2388 2571
M  V30 2597 2 2389 2430
M  V30 2598 1 2389 2572
M  V30 2599 2 2390 2431
M  V30 2600 1 2390 2573
M  V30 2601 2 2391 2432
M  V30 2602 1 2391 2574
M  V30 2603 2 2392 2433
M  V30 2604 1 2392 2576
M  V30 2605 2 2393 2435
M  V30 2606 1 2393 2577
M  V30 2607 2 2394 2436
M  V30 2608 1 2394 2578
M  V30 2609 2 2395 2437
M  V30 2610 1 2395 2579
M  V30 2611 2 2396 2434
M  V30 2612 1 2396 2575
M  V30 2613 2 2397 2439
M  V30 2614 1 2397 2561
M  V30 2615 2 2398 2438
M  V30 2616 1 2398 2563
M  V30 2617 2 2399 2440
M  V30 2618 1 2399 2580
M  V30 2619 2 2400 2428
M  V30 2620 1 2400 2569
M  V30 2621 2 2401 2441
M  V30 2622 1 2401 2598
M  V30 2623 2 2402 2458
M  V30 2624 1 2402 2582
M  V30 2625 2 2403 2442
M  V30 2626 1 2403 2583
M  V30 2627 2 2404 2443
M  V30 2628 1 2404 2584
M  V30 2629 2 2405 2444
M  V30 2630 1 2405 2586
M  V30 2631 2 2406 2445
M  V30 2632 1 2406 2587
M  V30 2633 2 2407 2446
M  V30 2634 1 2407 2588
M  V30 2635 2 2408 2447
M  V30 2636 1 2408 2589
M  V30 2637 2 2409 2448
M  V30 2638 1 2409 2590
M  V30 2639 2 2410 2449
M  V30 2640 1 2410 2591
M  V30 2641 2 2411 2450
M  V30 2642 1 2411 2592
M  V30 2643 2 2412 2451
M  V30 2644 1 2412 2593
M  V30 2645 2 2413 2452
M  V30 2646 1 2413 2594
M  V30 2647 2 2414 2453
M  V30 2648 1 2414 2585
M  V30 2649 2 2415 2454
M  V30 2650 1 2415 2595
M  V30 2651 2 2416 2455
M  V30 2652 1 2416 2596
M  V30 2653 2 2417 2456
M  V30 2654 1 2417 2597
M  V30 2655 2 2418 2457
M  V30 2656 1 2418 2599
M  V30 2657 2 2419 2460
M  V30 2658 1 2419 2581
M  V30 2659 2 2420 2459
M  V30 2660 1 2420 2600
M  V30 2661 1 2421 2441
M  V30 2662 1 2421 2618
M  V30 2663 1 2422 2449
M  V30 2664 1 2422 2611
M  V30 2665 1 2423 2442
M  V30 2666 1 2423 2603
M  V30 2667 1 2424 2443
M  V30 2668 1 2424 2604
M  V30 2669 1 2425 2444
M  V30 2670 1 2425 2605
M  V30 2671 1 2426 2445
M  V30 2672 1 2426 2606
M  V30 2673 1 2427 2446
M  V30 2674 1 2427 2607
M  V30 2675 1 2428 2447
M  V30 2676 1 2428 2609
M  V30 2677 1 2429 2448
M  V30 2678 1 2429 2610
M  V30 2679 1 2430 2450
M  V30 2680 1 2430 2612
M  V30 2681 1 2431 2451
M  V30 2682 1 2431 2613
M  V30 2683 1 2432 2452
M  V30 2684 1 2432 2614
M  V30 2685 1 2433 2454
M  V30 2686 1 2433 2615
M  V30 2687 1 2434 2453
M  V30 2688 1 2434 2608
M  V30 2689 1 2435 2455
M  V30 2690 1 2435 2616
M  V30 2691 1 2436 2456
M  V30 2692 1 2436 2617
M  V30 2693 1 2437 2457
M  V30 2694 1 2437 2619
M  V30 2695 1 2438 2458
M  V30 2696 1 2438 2602
M  V30 2697 1 2439 2460
M  V30 2698 1 2439 2601
M  V30 2699 1 2440 2459
M  V30 2700 1 2440 2620
M  V30 2701 1 2441 2621
M  V30 2702 1 2442 2624
M  V30 2703 1 2443 2623
M  V30 2704 1 2444 2625
M  V30 2705 1 2445 2626
M  V30 2706 1 2446 2627
M  V30 2707 1 2447 2629
M  V30 2708 1 2448 2630
M  V30 2709 1 2449 2631
M  V30 2710 1 2450 2640
M  V30 2711 1 2451 2632
M  V30 2712 1 2452 2633
M  V30 2713 1 2453 2628
M  V30 2714 1 2454 2634
M  V30 2715 1 2455 2635
M  V30 2716 1 2456 2636
M  V30 2717 1 2457 2637
M  V30 2718 1 2458 2622
M  V30 2719 1 2459 2639
M  V30 2720 1 2460 2638
M  V30 2721 1 2641 2661
M  V30 2722 1 2641 2821
M  V30 2723 1 2642 2678
M  V30 2724 1 2642 2838
M  V30 2725 1 2643 2662
M  V30 2726 1 2643 2822
M  V30 2727 1 2644 2663
M  V30 2728 1 2644 2823
M  V30 2729 1 2645 2664
M  V30 2730 1 2645 2824
M  V30 2731 1 2646 2665
M  V30 2732 1 2646 2825
M  V30 2733 1 2647 2666
M  V30 2734 1 2647 2826
M  V30 2735 1 2648 2667
M  V30 2736 1 2648 2827
M  V30 2737 1 2649 2669
M  V30 2738 1 2649 2828
M  V30 2739 1 2650 2670
M  V30 2740 1 2650 2829
M  V30 2741 1 2651 2671
M  V30 2742 1 2651 2830
M  V30 2743 1 2652 2672
M  V30 2744 1 2652 2831
M  V30 2745 1 2653 2673
M  V30 2746 1 2653 2832
M  V30 2747 1 2654 2674
M  V30 2748 1 2654 2833
M  V30 2749 1 2655 2668
M  V30 2750 1 2655 2835
M  V30 2751 1 2656 2675
M  V30 2752 1 2656 2834
M  V30 2753 1 2657 2676
M  V30 2754 1 2657 2836
M  V30 2755 1 2658 2677
M  V30 2756 1 2658 2837
M  V30 2757 1 2659 2679
M  V30 2758 1 2659 2839
M  V30 2759 1 2660 2680
M  V30 2760 1 2660 2840
M  V30 2761 1 2661 2681
M  V30 2762 1 2661 2721
M  V30 2763 1 2661 2841
M  V30 2764 1 2662 2682
M  V30 2765 1 2662 2723
M  V30 2766 1 2662 2843
M  V30 2767 1 2663 2683
M  V30 2768 1 2663 2724
M  V30 2769 1 2663 2842
M  V30 2770 1 2664 2684
M  V30 2771 1 2664 2725
M  V30 2772 1 2664 2844
M  V30 2773 1 2665 2685
M  V30 2774 1 2665 2726
M  V30 2775 1 2665 2845
M  V30 2776 1 2666 2686
M  V30 2777 1 2666 2727
M  V30 2778 1 2666 2846
M  V30 2779 1 2667 2687
M  V30 2780 1 2667 2728
M  V30 2781 1 2667 2847
M  V30 2782 1 2668 2688
M  V30 2783 1 2668 2735
M  V30 2784 1 2668 2854
M  V30 2785 1 2669 2689
M  V30 2786 1 2669 2729
M  V30 2787 1 2669 2848
M  V30 2788 1 2670 2690
M  V30 2789 1 2670 2730
M  V30 2790 1 2670 2849
M  V30 2791 1 2671 2691
M  V30 2792 1 2671 2731
M  V30 2793 1 2671 2850
M  V30 2794 1 2672 2692
M  V30 2795 1 2672 2732
M  V30 2796 1 2672 2851
M  V30 2797 1 2673 2693
M  V30 2798 1 2673 2733
M  V30 2799 1 2673 2852
M  V30 2800 1 2674 2694
M  V30 2801 1 2674 2734
M  V30 2802 1 2674 2853
M  V30 2803 1 2675 2695
M  V30 2804 1 2675 2736
M  V30 2805 1 2675 2855
M  V30 2806 1 2676 2696
M  V30 2807 1 2676 2737
M  V30 2808 1 2676 2856
M  V30 2809 1 2677 2697
M  V30 2810 1 2677 2738
M  V30 2811 1 2677 2857
M  V30 2812 1 2678 2698
M  V30 2813 1 2678 2722
M  V30 2814 1 2678 2858
M  V30 2815 1 2679 2699
M  V30 2816 1 2679 2739
M  V30 2817 1 2679 2859
M  V30 2818 1 2680 2700
M  V30 2819 1 2680 2740
M  V30 2820 1 2680 2860
M  V30 2821 2 2681 2701
M  V30 2822 2 2682 2702
M  V30 2823 2 2683 2703
M  V30 2824 2 2684 2704
M  V30 2825 2 2685 2705
M  V30 2826 2 2686 2706
M  V30 2827 2 2687 2707
M  V30 2828 2 2688 2714
M  V30 2829 2 2689 2708
M  V30 2830 2 2690 2709
M  V30 2831 2 2691 2710
M  V30 2832 2 2692 2711
M  V30 2833 2 2693 2712
M  V30 2834 2 2694 2713
M  V30 2835 2 2695 2715
M  V30 2836 2 2696 2716
M  V30 2837 2 2697 2717
M  V30 2838 2 2698 2718
M  V30 2839 2 2699 2719
M  V30 2840 2 2700 2720
M  V30 2841 1 2721 2741
M  V30 2842 1 2721 2861
M  V30 2843 1 2721 2881
M  V30 2844 1 2722 2758
M  V30 2845 1 2722 2878
M  V30 2846 1 2722 2882
M  V30 2847 1 2723 2742
M  V30 2848 1 2723 2863
M  V30 2849 1 2723 2884
M  V30 2850 1 2724 2743
M  V30 2851 1 2724 2862
M  V30 2852 1 2724 2883
M  V30 2853 1 2725 2744
M  V30 2854 1 2725 2864
M  V30 2855 1 2725 2885
M  V30 2856 1 2726 2745
M  V30 2857 1 2726 2865
M  V30 2858 1 2726 2886
M  V30 2859 1 2727 2746
M  V30 2860 1 2727 2866
M  V30 2861 1 2727 2887
M  V30 2862 1 2728 2747
M  V30 2863 1 2728 2867
M  V30 2864 1 2728 2888
M  V30 2865 1 2729 2748
M  V30 2866 1 2729 2868
M  V30 2867 1 2729 2889
M  V30 2868 1 2730 2749
M  V30 2869 1 2730 2869
M  V30 2870 1 2730 2890
M  V30 2871 1 2731 2750
M  V30 2872 1 2731 2870
M  V30 2873 1 2731 2891
M  V30 2874 1 2732 2751
M  V30 2875 1 2732 2871
M  V30 2876 1 2732 2892
M  V30 2877 1 2733 2752
M  V30 2878 1 2733 2872
M  V30 2879 1 2733 2893
M  V30 2880 1 2734 2753
M  V30 2881 1 2734 2873
M  V30 2882 1 2734 2894
M  V30 2883 1 2735 2760
M  V30 2884 1 2735 2874
M  V30 2885 1 2735 2895
M  V30 2886 1 2736 2754
M  V30 2887 1 2736 2875
M  V30 2888 1 2736 2896
M  V30 2889 1 2737 2755
M  V30 2890 1 2737 2876
M  V30 2891 1 2737 2897
M  V30 2892 1 2738 2756
M  V30 2893 1 2738 2877
M  V30 2894 1 2738 2898
M  V30 2895 1 2739 2757
M  V30 2896 1 2739 2879
M  V30 2897 1 2739 2899
M  V30 2898 1 2740 2759
M  V30 2899 1 2740 2880
M  V30 2900 1 2740 2900
M  V30 2901 1 2741 2761
M  V30 2902 1 2741 2901
M  V30 2903 1 2741 2921
M  V30 2904 1 2742 2762
M  V30 2905 1 2742 2903
M  V30 2906 1 2742 2923
M  V30 2907 1 2743 2763
M  V30 2908 1 2743 2902
M  V30 2909 1 2743 2922
M  V30 2910 1 2744 2764
M  V30 2911 1 2744 2904
M  V30 2912 1 2744 2924
M  V30 2913 1 2745 2765
M  V30 2914 1 2745 2905
M  V30 2915 1 2745 2925
M  V30 2916 1 2746 2766
M  V30 2917 1 2746 2906
M  V30 2918 1 2746 2926
M  V30 2919 1 2747 2767
M  V30 2920 1 2747 2907
M  V30 2921 1 2747 2927
M  V30 2922 1 2748 2768
M  V30 2923 1 2748 2908
M  V30 2924 1 2748 2928
M  V30 2925 1 2749 2769
M  V30 2926 1 2749 2909
M  V30 2927 1 2749 2930
M  V30 2928 1 2750 2770
M  V30 2929 1 2750 2910
M  V30 2930 1 2750 2931
M  V30 2931 1 2751 2771
M  V30 2932 1 2751 2911
M  V30 2933 1 2751 2932
M  V30 2934 1 2752 2772
M  V30 2935 1 2752 2913
M  V30 2936 1 2752 2933
M  V30 2937 1 2753 2773
M  V30 2938 1 2753 2914
M  V30 2939 1 2753 2934
M  V30 2940 1 2754 2774
M  V30 2941 1 2754 2915
M  V30 2942 1 2754 2935
M  V30 2943 1 2755 2775
M  V30 2944 1 2755 2916
M  V30 2945 1 2755 2936
M  V30 2946 1 2756 2776
M  V30 2947 1 2756 2917
M  V30 2948 1 2756 2937
M  V30 2949 1 2757 2777
M  V30 2950 1 2757 2919
M  V30 2951 1 2757 2939
M  V30 2952 1 2758 2778
M  V30 2953 1 2758 2918
M  V30 2954 1 2758 2938
M  V30 2955 1 2759 2780
M  V30 2956 1 2759 2920
M  V30 2957 1 2759 2940
M  V30 2958 1 2760 2779
M  V30 2959 1 2760 2912
M  V30 2960 1 2760 2929
M  V30 2961 1 2761 2781
M  V30 2962 1 2761 2941
M  V30 2963 1 2761 2961
M  V30 2964 1 2762 2782
M  V30 2965 1 2762 2943
M  V30 2966 1 2762 2964
M  V30 2967 1 2763 2783
M  V30 2968 1 2763 2942
M  V30 2969 1 2763 2963
M  V30 2970 1 2764 2784
M  V30 2971 1 2764 2944
M  V30 2972 1 2764 2965
M  V30 2973 1 2765 2785
M  V30 2974 1 2765 2945
M  V30 2975 1 2765 2966
M  V30 2976 1 2766 2786
M  V30 2977 1 2766 2946
M  V30 2978 1 2766 2967
M  V30 2979 1 2767 2787
M  V30 2980 1 2767 2947
M  V30 2981 1 2767 2968
M  V30 2982 1 2768 2788
M  V30 2983 1 2768 2948
M  V30 2984 1 2768 2969
M  V30 2985 1 2769 2789
M  V30 2986 1 2769 2949
M  V30 2987 1 2769 2970
M  V30 2988 1 2770 2790
M  V30 2989 1 2770 2950
M  V30 2990 1 2770 2971
M  V30 2991 1 2771 2791
M  V30 2992 1 2771 2952
M  V30 2993 1 2771 2972
M  V30 2994 1 2772 2792
M  V30 2995 1 2772 2953
M  V30 2996 1 2772 2973
M  V30 2997 1 2773 2793
M  V30 2998 1 2773 2954
M  V30 2999 1 2773 2974
M  V30 3000 1 2774 2794
M  V30 3001 1 2774 2955
M  V30 3002 1 2774 2976
M  V30 3003 1 2775 2795
M  V30 3004 1 2775 2956
M  V30 3005 1 2775 2977
M  V30 3006 1 2776 2796
M  V30 3007 1 2776 2957
M  V30 3008 1 2776 2978
M  V30 3009 1 2777 2797
M  V30 3010 1 2777 2959
M  V30 3011 1 2777 2979
M  V30 3012 1 2778 2798
M  V30 3013 1 2778 2958
M  V30 3014 1 2778 2962
M  V30 3015 1 2779 2799
M  V30 3016 1 2779 2951
M  V30 3017 1 2779 2975
M  V30 3018 1 2780 2800
M  V30 3019 1 2780 2960
M  V30 3020 1 2780 2980
M  V30 3021 1 2781 2801
M  V30 3022 1 2781 2981
M  V30 3023 1 2781 3001
M  V30 3024 1 2782 2803
M  V30 3025 1 2782 2984
M  V30 3026 1 2782 3003
M  V30 3027 1 2783 2804
M  V30 3028 1 2783 2983
M  V30 3029 1 2783 3002
M  V30 3030 1 2784 2805
M  V30 3031 1 2784 2985
M  V30 3032 1 2784 3004
M  V30 3033 1 2785 2806
M  V30 3034 1 2785 2986
M  V30 3035 1 2785 3005
M  V30 3036 1 2786 2807
M  V30 3037 1 2786 2987
M  V30 3038 1 2786 3006
M  V30 3039 1 2787 2808
M  V30 3040 1 2787 2988
M  V30 3041 1 2787 3007
M  V30 3042 1 2788 2809
M  V30 3043 1 2788 2989
M  V30 3044 1 2788 3008
M  V30 3045 1 2789 2810
M  V30 3046 1 2789 2990
M  V30 3047 1 2789 3009
M  V30 3048 1 2790 2811
M  V30 3049 1 2790 2991
M  V30 3050 1 2790 3010
M  V30 3051 1 2791 2812
M  V30 3052 1 2791 2992
M  V30 3053 1 2791 3011
M  V30 3054 1 2792 2813
M  V30 3055 1 2792 2993
M  V30 3056 1 2792 3012
M  V30 3057 1 2793 2814
M  V30 3058 1 2793 2994
M  V30 3059 1 2793 3013
M  V30 3060 1 2794 2816
M  V30 3061 1 2794 2995
M  V30 3062 1 2794 3015
M  V30 3063 1 2795 2817
M  V30 3064 1 2795 2996
M  V30 3065 1 2795 3016
M  V30 3066 1 2796 2818
M  V30 3067 1 2796 2997
M  V30 3068 1 2796 3017
M  V30 3069 1 2797 2819
M  V30 3070 1 2797 2999
M  V30 3071 1 2797 3019
M  V30 3072 1 2798 2802
M  V30 3073 1 2798 2998
M  V30 3074 1 2798 3018
M  V30 3075 1 2799 2815
M  V30 3076 1 2799 2982
M  V30 3077 1 2799 3014
M  V30 3078 1 2800 2820
M  V30 3079 1 2800 3000
M  V30 3080 1 2800 3020
M  V30 3081 1 2801 3021
M  V30 3082 1 2801 3041
M  V30 3083 1 2801 3061
M  V30 3084 1 2802 3038
M  V30 3085 1 2802 3042
M  V30 3086 1 2802 3062
M  V30 3087 1 2803 3023
M  V30 3088 1 2803 3044
M  V30 3089 1 2803 3064
M  V30 3090 1 2804 3022
M  V30 3091 1 2804 3043
M  V30 3092 1 2804 3063
M  V30 3093 1 2805 3024
M  V30 3094 1 2805 3045
M  V30 3095 1 2805 3065
M  V30 3096 1 2806 3025
M  V30 3097 1 2806 3046
M  V30 3098 1 2806 3066
M  V30 3099 1 2807 3026
M  V30 3100 1 2807 3047
M  V30 3101 1 2807 3067
M  V30 3102 1 2808 3027
M  V30 3103 1 2808 3048
M  V30 3104 1 2808 3068
M  V30 3105 1 2809 3028
M  V30 3106 1 2809 3049
M  V30 3107 1 2809 3069
M  V30 3108 1 2810 3029
M  V30 3109 1 2810 3050
M  V30 3110 1 2810 3070
M  V30 3111 1 2811 3030
M  V30 3112 1 2811 3051
M  V30 3113 1 2811 3071
M  V30 3114 1 2812 3031
M  V30 3115 1 2812 3052
M  V30 3116 1 2812 3072
M  V30 3117 1 2813 3032
M  V30 3118 1 2813 3053
M  V30 3119 1 2813 3073
M  V30 3120 1 2814 3033
M  V30 3121 1 2814 3054
M  V30 3122 1 2814 3074
M  V30 3123 1 2815 3034
M  V30 3124 1 2815 3055
M  V30 3125 1 2815 3075
M  V30 3126 1 2816 3035
M  V30 3127 1 2816 3056
M  V30 3128 1 2816 3076
M  V30 3129 1 2817 3036
M  V30 3130 1 2817 3057
M  V30 3131 1 2817 3077
M  V30 3132 1 2818 3037
M  V30 3133 1 2818 3058
M  V30 3134 1 2818 3078
M  V30 3135 1 2819 3039
M  V30 3136 1 2819 3059
M  V30 3137 1 2819 3079
M  V30 3138 1 2820 3040
M  V30 3139 1 2820 3060
M  V30 3140 1 2820 3080
M  V30 END BOND
M  V30 END CTAB
M  END
